/*--------------------------------*- C++ -*----------------------------------*\
  =========                 |
  \\      /  F ield         | OpenFOAM: The Open Source CFD Toolbox
   \\    /   O peration     | Website:  https://openfoam.org
    \\  /    A nd           | Version:  8
     \\/     M anipulation  |
\*---------------------------------------------------------------------------*/
FoamFile
{
    version     2.0;
    format      ascii;
    class       featureEdgeMesh;
    location    "constant/triSurface";
    object      BOTTOM.eMesh;
}
// * * * * * * * * * * * * * * * * * * * * * * * * * * * * * * * * * * * * * //


// points:

205
(
(81.5993 63.7507 5.68434e-14)
(77.4781 68.7004 5.68434e-14)
(85.4048 58.5544 5.68434e-14)
(88.8799 53.1316 5.68434e-14)
(92.0112 47.5032 4.9738e-14)
(94.7864 41.691 4.9738e-14)
(97.195 35.7175 4.9738e-14)
(99.2275 29.6058 4.9738e-14)
(100.876 23.3796 4.9738e-14)
(102.134 17.0629 4.9738e-14)
(102.998 10.6803 4.9738e-14)
(103.463 4.25628 4.9738e-14)
(103.527 -2.18418 4.26326e-14)
(103.191 -8.61619 4.26326e-14)
(102.456 -15.0149 4.26326e-14)
(101.324 -21.3554 4.26326e-14)
(99.8003 -27.6134 3.55271e-14)
(97.8905 -33.7645 3.55271e-14)
(95.6021 -39.785 3.55271e-14)
(92.9437 -45.6516 2.84217e-14)
(89.9258 -51.3416 2.84217e-14)
(86.5599 -56.8329 2.84217e-14)
(82.8592 -62.1044 1.42108e-14)
(78.8379 -67.1356 1.42108e-14)
(74.5116 -71.9071 1.42108e-14)
(69.897 -76.4003 7.10543e-15)
(65.012 -80.598 7.10543e-15)
(59.8755 -84.4839 7.10543e-15)
(54.5074 -88.0429 0)
(48.9283 -91.2613 0)
(43.16 -94.1266 0)
(37.2247 -96.6278 -1.42108e-14)
(31.1454 -98.7551 -1.42108e-14)
(24.9456 -100.5 -1.42108e-14)
(18.6493 -101.857 -2.13163e-14)
(12.2808 -102.819 -2.13163e-14)
(5.86479 -103.384 -2.13163e-14)
(-0.573888 -103.548 -2.13163e-14)
(-7.01034 -103.312 -2.84217e-14)
(-13.4197 -102.677 -2.84217e-14)
(-19.7771 -101.644 -2.84217e-14)
(-26.058 -100.218 -2.84217e-14)
(-32.2381 -98.4038 -3.55271e-14)
(-38.2935 -96.2092 -3.55271e-14)
(-44.2007 -93.6424 -3.55271e-14)
(-49.9369 -90.7133 -3.55271e-14)
(-55.4799 -87.4333 -3.55271e-14)
(-60.8083 -83.815 -3.55271e-14)
(-65.9014 -79.8725 -3.55271e-14)
(-70.7396 -75.6209 -4.26326e-14)
(-75.304 -71.0767 -4.26326e-14)
(-79.5772 -66.2576 -4.26326e-14)
(-83.5425 -61.1822 -4.26326e-14)
(-87.1845 -55.87 -4.26326e-14)
(-90.4893 -50.3417 -4.26326e-14)
(-93.444 -44.6186 -3.55271e-14)
(-96.0372 -38.7229 -3.55271e-14)
(-98.2588 -32.6774 -3.55271e-14)
(-100.1 -26.5055 -3.55271e-14)
(-101.554 -20.2311 -3.55271e-14)
(-102.616 -13.8783 -3.55271e-14)
(-103.28 -7.47189 -3.55271e-14)
(-103.545 -1.03655 -2.84217e-14)
(-103.409 5.4028 -2.84217e-14)
(-102.873 11.8212 -2.84217e-14)
(-101.939 18.194 -2.84217e-14)
(-100.611 24.4963 -2.13163e-14)
(-98.8933 30.7038 -2.13163e-14)
(-96.7931 36.7926 -2.13163e-14)
(-94.3185 42.739 -2.13163e-14)
(-91.479 48.5201 -1.42108e-14)
(-88.2855 54.1134 -1.42108e-14)
(-84.7505 59.4975 -1.42108e-14)
(-80.8877 64.6513 0)
(-76.7119 69.555 0)
(-72.2393 74.1896 0)
(-67.4872 78.5371 7.10543e-15)
(-62.474 82.5809 7.10543e-15)
(-57.2191 86.3051 7.10543e-15)
(-51.7429 89.6955 1.42108e-14)
(-46.0665 92.7388 1.42108e-14)
(-40.2118 95.4233 1.42108e-14)
(-34.2016 97.7387 2.84217e-14)
(-28.0591 99.6759 2.84217e-14)
(-21.808 101.228 2.84217e-14)
(-15.4725 102.387 3.55271e-14)
(-9.07717 103.151 3.55271e-14)
(-2.64673 103.516 3.55271e-14)
(3.79395 103.48 4.26326e-14)
(10.22 103.044 4.26326e-14)
(16.6064 102.21 4.26326e-14)
(22.9286 100.98 4.26326e-14)
(29.1621 99.3588 4.9738e-14)
(35.2828 97.3536 4.9738e-14)
(41.267 94.9718 4.9738e-14)
(47.0916 92.2225 4.9738e-14)
(52.7339 89.1164 4.9738e-14)
(58.1722 85.6656 4.9738e-14)
(63.3855 81.8833 4.9738e-14)
(68.3536 77.7843 4.9738e-14)
(73.0571 73.3843 5.68434e-14)
(86.3274 67.4446 5.68434e-14)
(90.2421 62.1093 5.68434e-14)
(82.0977 72.5339 5.68434e-14)
(77.5684 77.3585 5.68434e-14)
(72.7561 81.9008 5.68434e-14)
(67.6783 86.1443 5.68434e-14)
(62.3536 90.0735 5.68434e-14)
(56.8013 93.674 5.68434e-14)
(51.0418 96.9326 4.9738e-14)
(45.096 99.8376 4.9738e-14)
(38.9857 102.378 4.9738e-14)
(32.7332 104.545 4.9738e-14)
(26.3611 106.331 4.9738e-14)
(19.8929 107.729 4.26326e-14)
(13.3521 108.733 4.26326e-14)
(6.76262 109.341 4.26326e-14)
(0.148437 109.55 4.26326e-14)
(-6.46629 109.359 3.55271e-14)
(-13.0574 108.769 3.55271e-14)
(-19.6009 107.782 3.55271e-14)
(-26.0729 106.402 2.84217e-14)
(-32.4497 104.634 2.84217e-14)
(-38.7081 102.484 2.84217e-14)
(-44.8253 99.9595 1.42108e-14)
(-50.7789 97.0706 1.42108e-14)
(-56.5473 93.8275 1.42108e-14)
(-62.1093 90.2421 7.10543e-15)
(-67.4446 86.3274 7.10543e-15)
(-72.5339 82.0977 7.10543e-15)
(-77.3585 77.5684 0)
(-81.9008 72.7561 0)
(-86.1443 67.6783 0)
(-90.0735 62.3536 -1.42108e-14)
(-93.674 56.8013 -1.42108e-14)
(-96.9326 51.0418 -1.42108e-14)
(-99.8376 45.096 -2.13163e-14)
(-102.378 38.9857 -2.13163e-14)
(-104.545 32.7332 -2.13163e-14)
(-106.331 26.3611 -2.84217e-14)
(-107.729 19.8929 -2.84217e-14)
(-108.733 13.3521 -2.84217e-14)
(-109.341 6.76262 -2.84217e-14)
(-109.55 0.148437 -3.55271e-14)
(-109.359 -6.46629 -3.55271e-14)
(-108.769 -13.0574 -3.55271e-14)
(-107.782 -19.6009 -3.55271e-14)
(-106.402 -26.0729 -3.55271e-14)
(-104.634 -32.4497 -4.26326e-14)
(-102.484 -38.7081 -4.26326e-14)
(-99.9595 -44.8253 -4.26326e-14)
(-97.0706 -50.7789 -4.26326e-14)
(-93.8275 -56.5473 -4.26326e-14)
(-90.2421 -62.1093 -4.26326e-14)
(-86.3274 -67.4446 -4.26326e-14)
(-82.0977 -72.5339 -4.26326e-14)
(-77.5684 -77.3585 -4.26326e-14)
(-72.7561 -81.9008 -4.26326e-14)
(-67.6783 -86.1443 -4.26326e-14)
(-62.3536 -90.0735 -4.26326e-14)
(-56.8013 -93.674 -4.26326e-14)
(-51.0418 -96.9326 -3.55271e-14)
(-45.096 -99.8376 -3.55271e-14)
(-38.9857 -102.378 -3.55271e-14)
(-32.7332 -104.545 -3.55271e-14)
(-26.3611 -106.331 -3.55271e-14)
(-19.8929 -107.729 -2.84217e-14)
(-13.3521 -108.733 -2.84217e-14)
(-6.76262 -109.341 -2.84217e-14)
(-0.148437 -109.55 -2.84217e-14)
(6.46629 -109.359 -2.13163e-14)
(13.0574 -108.769 -2.13163e-14)
(19.6009 -107.782 -2.13163e-14)
(26.0729 -106.402 -1.42108e-14)
(32.4497 -104.634 -1.42108e-14)
(38.7081 -102.484 -1.42108e-14)
(44.8253 -99.9595 0)
(50.7789 -97.0706 0)
(56.5473 -93.8275 0)
(62.1093 -90.2421 7.10543e-15)
(67.4446 -86.3274 7.10543e-15)
(72.5339 -82.0977 7.10543e-15)
(77.3585 -77.5684 1.42108e-14)
(81.9008 -72.7561 1.42108e-14)
(86.1443 -67.6783 1.42108e-14)
(90.0735 -62.3536 2.84217e-14)
(93.674 -56.8013 2.84217e-14)
(96.9326 -51.0418 2.84217e-14)
(99.8376 -45.096 3.55271e-14)
(102.378 -38.9857 3.55271e-14)
(104.545 -32.7332 3.55271e-14)
(106.331 -26.3611 4.26326e-14)
(107.729 -19.8929 4.26326e-14)
(108.733 -13.3521 4.26326e-14)
(109.341 -6.76262 4.26326e-14)
(109.55 -0.148437 4.9738e-14)
(109.359 6.46629 4.9738e-14)
(108.769 13.0574 4.9738e-14)
(107.782 19.6009 4.9738e-14)
(106.402 26.0729 4.9738e-14)
(104.634 32.4497 5.68434e-14)
(102.484 38.7081 5.68434e-14)
(99.9595 44.8253 5.68434e-14)
(97.0706 50.7789 5.68434e-14)
(93.8275 56.5473 5.68434e-14)
)


// edges:

205
(
(0 1)
(2 0)
(3 2)
(4 3)
(5 4)
(6 5)
(7 6)
(8 7)
(9 8)
(10 9)
(11 10)
(12 11)
(13 12)
(14 13)
(15 14)
(16 15)
(17 16)
(18 17)
(19 18)
(20 19)
(21 20)
(22 21)
(23 22)
(24 23)
(25 24)
(26 25)
(27 26)
(28 27)
(29 28)
(30 29)
(31 30)
(32 31)
(33 32)
(34 33)
(35 34)
(36 35)
(37 36)
(38 37)
(39 38)
(40 39)
(41 40)
(42 41)
(43 42)
(44 43)
(45 44)
(46 45)
(47 46)
(48 47)
(49 48)
(50 49)
(51 50)
(52 51)
(53 52)
(54 53)
(55 54)
(56 55)
(57 56)
(58 57)
(59 58)
(60 59)
(61 60)
(62 61)
(63 62)
(64 63)
(65 64)
(66 65)
(67 66)
(68 67)
(69 68)
(70 69)
(71 70)
(72 71)
(73 72)
(74 73)
(75 74)
(76 75)
(77 76)
(78 77)
(79 78)
(80 79)
(81 80)
(82 81)
(83 82)
(84 83)
(85 84)
(86 85)
(87 86)
(88 87)
(89 88)
(90 89)
(91 90)
(92 91)
(93 92)
(94 93)
(95 94)
(96 95)
(97 96)
(98 97)
(99 98)
(100 99)
(1 100)
(101 102)
(103 101)
(104 103)
(105 104)
(106 105)
(107 106)
(108 107)
(109 108)
(110 109)
(111 110)
(112 111)
(113 112)
(114 113)
(115 114)
(116 115)
(117 116)
(118 117)
(119 118)
(120 119)
(121 120)
(122 121)
(123 122)
(124 123)
(125 124)
(126 125)
(127 126)
(128 127)
(129 128)
(130 129)
(131 130)
(132 131)
(133 132)
(134 133)
(135 134)
(136 135)
(137 136)
(138 137)
(139 138)
(140 139)
(141 140)
(142 141)
(143 142)
(144 143)
(145 144)
(146 145)
(147 146)
(148 147)
(149 148)
(150 149)
(151 150)
(152 151)
(153 152)
(154 153)
(155 154)
(156 155)
(157 156)
(158 157)
(159 158)
(160 159)
(161 160)
(162 161)
(163 162)
(164 163)
(165 164)
(166 165)
(167 166)
(168 167)
(169 168)
(170 169)
(171 170)
(172 171)
(173 172)
(174 173)
(175 174)
(176 175)
(177 176)
(178 177)
(179 178)
(180 179)
(181 180)
(182 181)
(183 182)
(184 183)
(185 184)
(186 185)
(187 186)
(188 187)
(189 188)
(190 189)
(191 190)
(192 191)
(193 192)
(194 193)
(195 194)
(196 195)
(197 196)
(198 197)
(199 198)
(200 199)
(201 200)
(202 201)
(203 202)
(204 203)
(102 204)
)

// * * * * * * * * * * * * * * * * * * * * * * * * * * * * * * * * * * * * * //


// ************************************************************************* //
