/*--------------------------------*- C++ -*----------------------------------*\
  =========                 |
  \\      /  F ield         | OpenFOAM: The Open Source CFD Toolbox
   \\    /   O peration     | Website:  https://openfoam.org
    \\  /    A nd           | Version:  8
     \\/     M anipulation  |
\*---------------------------------------------------------------------------*/
FoamFile
{
    version     2.0;
    format      ascii;
    class       featureEdgeMesh;
    location    "constant/triSurface";
    object      HOLDER.eMesh;
}
// * * * * * * * * * * * * * * * * * * * * * * * * * * * * * * * * * * * * * //


// points:

48
(
(-0.653611 2.41305 284.83)
(-0.00679744 2.49999 284.83)
(-1.25588 2.16166 284.83)
(-1.77257 1.76295 284.83)
(-2.16845 1.24411 284.83)
(-2.41656 0.640479 284.83)
(-2.49999 -0.00679744 284.83)
(-2.41305 -0.653611 284.83)
(-2.16166 -1.25588 284.83)
(-1.76295 -1.77257 284.83)
(-1.24411 -2.16845 284.83)
(-0.640479 -2.41656 284.83)
(0.00679744 -2.49999 284.83)
(0.653611 -2.41305 284.83)
(1.25588 -2.16166 284.83)
(1.77257 -1.76295 284.83)
(2.16845 -1.24411 284.83)
(2.41656 -0.640479 284.83)
(2.49999 0.00679744 284.83)
(2.41305 0.653611 284.83)
(2.16166 1.25588 284.83)
(1.76295 1.77257 284.83)
(1.24411 2.16845 284.83)
(0.640479 2.41656 284.83)
(-0.653611 2.41305 27.4)
(-1.25588 2.16166 27.4)
(-0.00679744 2.49999 27.4)
(0.640479 2.41656 27.4)
(1.24411 2.16845 27.4)
(1.76295 1.77257 27.4)
(2.16166 1.25588 27.4)
(2.41305 0.653611 27.4)
(2.49999 0.00679744 27.4)
(2.41656 -0.640479 27.4)
(2.16845 -1.24411 27.4)
(1.77257 -1.76295 27.4)
(1.25588 -2.16166 27.4)
(0.653611 -2.41305 27.4)
(0.00679744 -2.49999 27.4)
(-0.640479 -2.41656 27.4)
(-1.24411 -2.16845 27.4)
(-1.76295 -1.77257 27.4)
(-2.16166 -1.25588 27.4)
(-2.41305 -0.653611 27.4)
(-2.49999 -0.00679744 27.4)
(-2.41656 0.640479 27.4)
(-2.16845 1.24411 27.4)
(-1.77257 1.76295 27.4)
)


// edges:

48
(
(0 1)
(2 0)
(3 2)
(4 3)
(5 4)
(6 5)
(7 6)
(8 7)
(9 8)
(10 9)
(11 10)
(12 11)
(13 12)
(14 13)
(15 14)
(16 15)
(17 16)
(18 17)
(19 18)
(20 19)
(21 20)
(22 21)
(23 22)
(1 23)
(24 25)
(26 24)
(27 26)
(28 27)
(29 28)
(30 29)
(31 30)
(32 31)
(33 32)
(34 33)
(35 34)
(36 35)
(37 36)
(38 37)
(39 38)
(40 39)
(41 40)
(42 41)
(43 42)
(44 43)
(45 44)
(46 45)
(47 46)
(25 47)
)

// * * * * * * * * * * * * * * * * * * * * * * * * * * * * * * * * * * * * * //


// ************************************************************************* //
