/*--------------------------------*- C++ -*----------------------------------*\
  =========                 |
  \\      /  F ield         | OpenFOAM: The Open Source CFD Toolbox
   \\    /   O peration     | Website:  https://openfoam.org
    \\  /    A nd           | Version:  8
     \\/     M anipulation  |
\*---------------------------------------------------------------------------*/
FoamFile
{
    version     2.0;
    format      ascii;
    class       featureEdgeMesh;
    location    "constant/triSurface";
    object      MRF.eMesh;
}
// * * * * * * * * * * * * * * * * * * * * * * * * * * * * * * * * * * * * * //


// points:

204
(
(-35.1855 12.9704 32.4)
(-34.3203 15.1119 32.4)
(-35.1855 12.9704 -7.6)
(-35.9172 10.7798 -7.6)
(-35.9172 10.7798 32.4)
(-36.5127 8.54825 -7.6)
(-36.5127 8.54825 32.4)
(-36.9697 6.28428 -7.6)
(-36.9697 6.28428 32.4)
(-37.2864 3.99647 -7.6)
(-37.2864 3.99647 32.4)
(-37.4617 1.69351 -7.6)
(-37.4617 1.69351 32.4)
(-37.4949 -0.615884 -7.6)
(-37.4949 -0.615884 32.4)
(-37.3859 -2.92294 -7.6)
(-37.3859 -2.92294 32.4)
(-37.1351 -5.2189 -7.6)
(-37.1351 -5.2189 32.4)
(-36.7434 -7.49508 -7.6)
(-36.7434 -7.49508 32.4)
(-36.2123 -9.74281 -7.6)
(-36.2123 -9.74281 32.4)
(-35.5438 -11.9536 -7.6)
(-35.5438 -11.9536 32.4)
(-34.7405 -14.119 -7.6)
(-34.7405 -14.119 32.4)
(-33.8054 -16.2309 -7.6)
(-33.8054 -16.2309 32.4)
(-32.7421 -18.2812 -7.6)
(-32.7421 -18.2812 32.4)
(-31.5546 -20.2622 -7.6)
(-31.5546 -20.2622 32.4)
(-30.2474 -22.1663 -7.6)
(-30.2474 -22.1663 32.4)
(-28.8255 -23.9863 -7.6)
(-28.8255 -23.9863 32.4)
(-27.2942 -25.7153 -7.6)
(-27.2942 -25.7153 32.4)
(-25.6593 -27.3468 -7.6)
(-25.6593 -27.3468 32.4)
(-23.9272 -28.8745 -7.6)
(-23.9272 -28.8745 32.4)
(-22.1043 -30.2928 -7.6)
(-22.1043 -30.2928 32.4)
(-20.1975 -31.5961 -7.6)
(-20.1975 -31.5961 32.4)
(-18.2141 -32.7795 -7.6)
(-18.2141 -32.7795 32.4)
(-16.1616 -33.8386 -7.6)
(-16.1616 -33.8386 32.4)
(-14.0478 -34.7694 -7.6)
(-14.0478 -34.7694 32.4)
(-11.8807 -35.5682 -7.6)
(-11.8807 -35.5682 32.4)
(-9.6686 -36.2321 -7.6)
(-9.6686 -36.2321 32.4)
(-7.41978 -36.7586 -7.6)
(-7.41978 -36.7586 32.4)
(-5.14282 -37.1457 -7.6)
(-5.14282 -37.1457 32.4)
(-2.84634 -37.3918 -7.6)
(-2.84634 -37.3918 32.4)
(-0.539067 -37.4961 -7.6)
(-0.539067 -37.4961 32.4)
(1.77025 -37.4582 -7.6)
(1.77025 -37.4582 32.4)
(4.07285 -37.2782 -7.6)
(4.07285 -37.2782 32.4)
(6.36001 -36.9567 -7.6)
(6.36001 -36.9567 32.4)
(8.62303 -36.4951 -7.6)
(8.62303 -36.4951 32.4)
(10.8533 -35.8951 -7.6)
(10.8533 -35.8951 32.4)
(13.0425 -35.1588 -7.6)
(13.0425 -35.1588 32.4)
(15.1822 -34.2892 -7.6)
(15.1822 -34.2892 32.4)
(17.2642 -33.2896 -7.6)
(17.2642 -33.2896 32.4)
(19.2808 -32.1636 -7.6)
(19.2808 -32.1636 32.4)
(21.2243 -30.9157 -7.6)
(21.2243 -30.9157 32.4)
(23.0872 -29.5505 -7.6)
(23.0872 -29.5505 32.4)
(24.8626 -28.0731 -7.6)
(24.8626 -28.0731 32.4)
(26.5436 -26.4893 -7.6)
(26.5436 -26.4893 32.4)
(28.124 -24.805 -7.6)
(28.124 -24.805 32.4)
(29.5977 -23.0266 -7.6)
(29.5977 -23.0266 32.4)
(30.9591 -21.1609 -7.6)
(30.9591 -21.1609 32.4)
(32.2031 -19.2149 -7.6)
(32.2031 -19.2149 32.4)
(33.3249 -17.196 -7.6)
(33.3249 -17.196 32.4)
(34.3203 -15.1119 32.4)
(34.3203 -15.1119 -7.6)
(35.1855 -12.9704 32.4)
(35.1855 -12.9704 -7.6)
(35.9172 -10.7798 32.4)
(35.9172 -10.7798 -7.6)
(36.5127 -8.54825 32.4)
(36.5127 -8.54825 -7.6)
(36.9697 -6.28428 -7.6)
(-34.3203 15.1119 -7.6)
(-33.3249 17.196 32.4)
(-33.3249 17.196 -7.6)
(-32.2031 19.2149 32.4)
(-32.2031 19.2149 -7.6)
(-30.9591 21.1609 32.4)
(-30.9591 21.1609 -7.6)
(-29.5977 23.0266 32.4)
(-29.5977 23.0266 -7.6)
(-28.124 24.805 32.4)
(-28.124 24.805 -7.6)
(-26.5436 26.4893 32.4)
(-26.5436 26.4893 -7.6)
(-24.8626 28.0731 32.4)
(-24.8626 28.0731 -7.6)
(-23.0872 29.5505 32.4)
(-23.0872 29.5505 -7.6)
(-21.2243 30.9157 32.4)
(-21.2243 30.9157 -7.6)
(-19.2808 32.1636 32.4)
(-19.2808 32.1636 -7.6)
(-17.2642 33.2896 32.4)
(-17.2642 33.2896 -7.6)
(-15.1822 34.2892 32.4)
(-15.1822 34.2892 -7.6)
(-13.0425 35.1588 32.4)
(-13.0425 35.1588 -7.6)
(-10.8533 35.8951 32.4)
(-10.8533 35.8951 -7.6)
(-8.62303 36.4951 32.4)
(-8.62303 36.4951 -7.6)
(-6.36001 36.9567 32.4)
(-6.36001 36.9567 -7.6)
(-4.07285 37.2782 32.4)
(-4.07285 37.2782 -7.6)
(-1.77025 37.4582 32.4)
(-1.77025 37.4582 -7.6)
(0.539067 37.4961 32.4)
(0.539067 37.4961 -7.6)
(2.84634 37.3918 32.4)
(2.84634 37.3918 -7.6)
(5.14282 37.1457 32.4)
(5.14282 37.1457 -7.6)
(7.41978 36.7586 32.4)
(7.41978 36.7586 -7.6)
(9.6686 36.2321 32.4)
(9.6686 36.2321 -7.6)
(11.8807 35.5682 32.4)
(11.8807 35.5682 -7.6)
(14.0478 34.7694 32.4)
(14.0478 34.7694 -7.6)
(16.1616 33.8386 32.4)
(16.1616 33.8386 -7.6)
(18.2141 32.7795 32.4)
(18.2141 32.7795 -7.6)
(20.1975 31.5961 32.4)
(20.1975 31.5961 -7.6)
(22.1043 30.2928 32.4)
(22.1043 30.2928 -7.6)
(23.9272 28.8745 32.4)
(23.9272 28.8745 -7.6)
(25.6593 27.3468 32.4)
(25.6593 27.3468 -7.6)
(27.2942 25.7153 32.4)
(27.2942 25.7153 -7.6)
(28.8255 23.9863 32.4)
(28.8255 23.9863 -7.6)
(30.2474 22.1663 32.4)
(30.2474 22.1663 -7.6)
(31.5546 20.2622 32.4)
(31.5546 20.2622 -7.6)
(32.7421 18.2812 32.4)
(32.7421 18.2812 -7.6)
(33.8054 16.2309 32.4)
(33.8054 16.2309 -7.6)
(34.7405 14.119 32.4)
(34.7405 14.119 -7.6)
(35.5438 11.9536 32.4)
(35.5438 11.9536 -7.6)
(36.2123 9.74281 32.4)
(36.2123 9.74281 -7.6)
(36.7434 7.49508 32.4)
(36.7434 7.49508 -7.6)
(37.1351 5.2189 32.4)
(37.1351 5.2189 -7.6)
(37.3859 2.92294 32.4)
(37.3859 2.92294 -7.6)
(37.4949 0.615884 32.4)
(37.4949 0.615884 -7.6)
(37.4617 -1.69351 32.4)
(37.4617 -1.69351 -7.6)
(37.2864 -3.99647 32.4)
(37.2864 -3.99647 -7.6)
(36.9697 -6.28428 32.4)
)


// edges:

204
(
(0 1)
(2 3)
(4 0)
(3 5)
(6 4)
(5 7)
(8 6)
(7 9)
(10 8)
(9 11)
(12 10)
(11 13)
(14 12)
(13 15)
(16 14)
(15 17)
(18 16)
(17 19)
(20 18)
(19 21)
(22 20)
(21 23)
(24 22)
(23 25)
(26 24)
(25 27)
(28 26)
(27 29)
(30 28)
(29 31)
(32 30)
(31 33)
(34 32)
(33 35)
(36 34)
(35 37)
(38 36)
(37 39)
(40 38)
(39 41)
(42 40)
(41 43)
(44 42)
(43 45)
(46 44)
(45 47)
(48 46)
(47 49)
(50 48)
(49 51)
(52 50)
(51 53)
(54 52)
(53 55)
(56 54)
(55 57)
(58 56)
(57 59)
(60 58)
(59 61)
(62 60)
(61 63)
(64 62)
(63 65)
(66 64)
(65 67)
(68 66)
(67 69)
(70 68)
(69 71)
(72 70)
(71 73)
(74 72)
(73 75)
(76 74)
(75 77)
(78 76)
(77 79)
(80 78)
(79 81)
(82 80)
(81 83)
(84 82)
(83 85)
(86 84)
(85 87)
(88 86)
(87 89)
(90 88)
(89 91)
(92 90)
(91 93)
(94 92)
(93 95)
(96 94)
(95 97)
(98 96)
(97 99)
(100 98)
(101 100)
(99 102)
(103 101)
(102 104)
(105 103)
(104 106)
(107 105)
(106 108)
(108 109)
(110 2)
(1 111)
(112 110)
(111 113)
(114 112)
(113 115)
(116 114)
(115 117)
(118 116)
(117 119)
(120 118)
(119 121)
(122 120)
(121 123)
(124 122)
(123 125)
(126 124)
(125 127)
(128 126)
(127 129)
(130 128)
(129 131)
(132 130)
(131 133)
(134 132)
(133 135)
(136 134)
(135 137)
(138 136)
(137 139)
(140 138)
(139 141)
(142 140)
(141 143)
(144 142)
(143 145)
(146 144)
(145 147)
(148 146)
(147 149)
(150 148)
(149 151)
(152 150)
(151 153)
(154 152)
(153 155)
(156 154)
(155 157)
(158 156)
(157 159)
(160 158)
(159 161)
(162 160)
(161 163)
(164 162)
(163 165)
(166 164)
(165 167)
(168 166)
(167 169)
(170 168)
(169 171)
(172 170)
(171 173)
(174 172)
(173 175)
(176 174)
(175 177)
(178 176)
(177 179)
(180 178)
(179 181)
(182 180)
(181 183)
(184 182)
(183 185)
(186 184)
(185 187)
(188 186)
(187 189)
(190 188)
(189 191)
(192 190)
(191 193)
(194 192)
(193 195)
(196 194)
(195 197)
(198 196)
(197 199)
(200 198)
(199 201)
(202 200)
(201 203)
(109 202)
(203 107)
)

// * * * * * * * * * * * * * * * * * * * * * * * * * * * * * * * * * * * * * //


// ************************************************************************* //
