/*--------------------------------*- C++ -*----------------------------------*\
  =========                 |
  \\      /  F ield         | OpenFOAM: The Open Source CFD Toolbox
   \\    /   O peration     | Website:  https://openfoam.org
    \\  /    A nd           | Version:  8
     \\/     M anipulation  |
\*---------------------------------------------------------------------------*/
FoamFile
{
    version     2.0;
    format      ascii;
    class       featureEdgeMesh;
    location    "constant/triSurface";
    object      TOP.eMesh;
}
// * * * * * * * * * * * * * * * * * * * * * * * * * * * * * * * * * * * * * //


// points:

210
(
(-28.6412 105.74 289.83)
(-22.2663 107.263 289.83)
(-28.6412 105.74 284.83)
(-34.9136 103.838 284.83)
(-34.9136 103.838 289.83)
(-41.0611 101.564 284.83)
(-41.0611 101.564 289.83)
(-47.0615 98.9263 284.83)
(-47.0615 98.9263 289.83)
(-52.8935 95.9348 284.83)
(-52.8935 95.9348 289.83)
(-58.5361 92.5998 284.83)
(-58.5361 92.5998 289.83)
(-63.9692 88.9334 284.83)
(-63.9692 88.9334 289.83)
(-69.1733 84.9486 284.83)
(-69.1733 84.9486 289.83)
(-74.1297 80.6597 284.83)
(-74.1297 80.6597 289.83)
(-78.8208 76.082 284.83)
(-78.8208 76.082 289.83)
(-83.2298 71.232 284.83)
(-83.2298 71.232 289.83)
(-87.3408 66.1271 284.83)
(-87.3408 66.1271 289.83)
(-91.1391 60.7854 284.83)
(-91.1391 60.7854 289.83)
(-94.6112 55.2261 284.83)
(-94.6112 55.2261 289.83)
(-97.7446 49.4691 284.83)
(-97.7446 49.4691 289.83)
(-100.528 43.535 284.83)
(-100.528 43.535 289.83)
(-102.952 37.4451 284.83)
(-102.952 37.4451 289.83)
(-105.007 31.2211 284.83)
(-105.007 31.2211 289.83)
(-106.686 24.8854 284.83)
(-106.686 24.8854 289.83)
(-107.983 18.4606 284.83)
(-107.983 18.4606 289.83)
(-108.894 11.9697 284.83)
(-108.894 11.9697 289.83)
(-109.415 5.43593 284.83)
(-109.415 5.43593 289.83)
(-109.544 -1.11728 284.83)
(-109.544 -1.11728 289.83)
(-109.281 -7.66648 284.83)
(-109.281 -7.66648 289.83)
(-108.627 -14.1882 284.83)
(-108.627 -14.1882 289.83)
(-107.584 -20.6592 284.83)
(-107.584 -20.6592 289.83)
(-106.156 -27.0562 284.83)
(-106.156 -27.0562 289.83)
(-104.348 -33.3564 284.83)
(-104.348 -33.3564 289.83)
(-102.167 -39.5371 284.83)
(-102.167 -39.5371 289.83)
(-99.6193 -45.5764 284.83)
(-99.6193 -45.5764 289.83)
(-96.7153 -51.4524 284.83)
(-96.7153 -51.4524 289.83)
(-93.4651 -57.1443 284.83)
(-93.4651 -57.1443 289.83)
(-89.8804 -62.6316 284.83)
(-89.8804 -62.6316 289.83)
(-85.9739 -67.8948 284.83)
(-85.9739 -67.8948 289.83)
(-81.7596 -72.9148 284.83)
(-81.7596 -72.9148 289.83)
(-77.2526 -77.6739 284.83)
(-77.2526 -77.6739 289.83)
(-72.4691 -82.1549 284.83)
(-72.4691 -82.1549 289.83)
(-67.4262 -86.3418 284.83)
(-67.4262 -86.3418 289.83)
(-62.1419 -90.2196 284.83)
(-62.1419 -90.2196 289.83)
(-56.6352 -93.7745 284.83)
(-56.6352 -93.7745 289.83)
(-50.9257 -96.9937 284.83)
(-50.9257 -96.9937 289.83)
(-45.034 -99.8656 284.83)
(-45.034 -99.8656 289.83)
(-38.981 -102.38 284.83)
(-38.981 -102.38 289.83)
(-32.7885 -104.528 284.83)
(-32.7885 -104.528 289.83)
(-26.4786 -106.302 284.83)
(-26.4786 -106.302 289.83)
(-20.0739 -107.695 284.83)
(-20.0739 -107.695 289.83)
(-13.5973 -108.703 284.83)
(-13.5973 -108.703 289.83)
(-7.0721 -109.322 284.83)
(-7.0721 -109.322 289.83)
(-0.521566 -109.549 284.83)
(-0.521566 -109.549 289.83)
(6.03084 -109.384 284.83)
(6.03084 -109.384 289.83)
(12.5617 -108.827 284.83)
(12.5617 -108.827 289.83)
(19.0475 -107.881 284.83)
(19.0475 -107.881 289.83)
(25.4652 -106.549 284.83)
(25.4652 -106.549 289.83)
(31.7917 -104.836 284.83)
(31.7917 -104.836 289.83)
(38.0044 -102.747 284.83)
(38.0044 -102.747 289.83)
(44.081 -100.29 284.83)
(44.081 -100.29 289.83)
(49.9999 -97.4742 284.83)
(49.9999 -97.4742 289.83)
(55.7397 -94.3095 284.83)
(55.7397 -94.3095 289.83)
(61.2801 -90.8072 284.83)
(61.2801 -90.8072 289.83)
(66.601 -86.9799 284.83)
(66.601 -86.9799 289.83)
(71.6836 -82.8412 284.83)
(71.6836 -82.8412 289.83)
(76.5095 -78.406 284.83)
(76.5095 -78.406 289.83)
(81.0616 -73.69 284.83)
(81.0616 -73.69 289.83)
(85.3235 -68.7103 284.83)
(85.3235 -68.7103 289.83)
(89.2799 -63.4846 284.83)
(89.2799 -63.4846 289.83)
(92.9168 -58.0317 284.83)
(92.9168 -58.0317 289.83)
(96.221 -52.371 284.83)
(96.221 -52.371 289.83)
(99.1808 -46.5229 284.83)
(99.1808 -46.5229 289.83)
(101.785 -40.5082 284.83)
(101.785 -40.5082 289.83)
(104.026 -34.3485 284.83)
(104.026 -34.3485 289.83)
(105.894 -28.0658 284.83)
(105.894 -28.0658 289.83)
(107.383 -21.6827 284.83)
(107.383 -21.6827 289.83)
(108.487 -15.2219 284.83)
(108.487 -15.2219 289.83)
(109.203 -8.7067 284.83)
(109.203 -8.7067 289.83)
(109.529 -2.16029 284.83)
(109.529 -2.16029 289.83)
(109.462 4.39385 284.83)
(109.462 4.39385 289.83)
(109.003 10.9323 284.83)
(109.003 10.9323 289.83)
(108.154 17.4315 284.83)
(108.154 17.4315 289.83)
(106.918 23.8684 284.83)
(106.918 23.8684 289.83)
(105.299 30.2198 284.83)
(105.299 30.2198 289.83)
(103.304 36.4631 284.83)
(103.304 36.4631 289.83)
(100.938 42.5758 284.83)
(100.938 42.5758 289.83)
(98.2112 48.5361 284.83)
(98.2112 48.5361 289.83)
(95.1328 54.3227 284.83)
(95.1328 54.3227 289.83)
(91.7138 59.9148 284.83)
(91.7138 59.9148 289.83)
(87.9665 65.2924 284.83)
(87.9665 65.2924 289.83)
(83.9043 70.4363 284.83)
(83.9043 70.4363 289.83)
(79.5417 75.3281 284.83)
(79.5417 75.3281 289.83)
(74.8944 79.9502 284.83)
(74.8944 79.9502 289.83)
(69.979 84.2861 284.83)
(69.979 84.2861 289.83)
(64.8131 88.3202 284.83)
(64.8131 88.3202 289.83)
(59.4152 92.0383 284.83)
(59.4152 92.0383 289.83)
(53.8046 95.4268 284.83)
(53.8046 95.4268 289.83)
(48.0013 98.4737 284.83)
(48.0013 98.4737 289.83)
(42.0263 101.168 284.83)
(42.0263 101.168 289.83)
(35.9008 103.5 284.83)
(35.9008 103.5 289.83)
(29.6468 105.462 284.83)
(29.6468 105.462 289.83)
(23.2866 107.046 284.83)
(23.2866 107.046 289.83)
(16.8431 108.247 284.83)
(16.8431 108.247 289.83)
(10.3393 109.061 284.83)
(10.3393 109.061 289.83)
(3.79854 109.484 284.83)
(3.79854 109.484 289.83)
(-2.75587 109.515 284.83)
(-2.75587 109.515 289.83)
(-9.30041 109.155 284.83)
(-9.30041 109.155 289.83)
(-15.8117 108.403 284.83)
(-15.8117 108.403 289.83)
(-22.2663 107.263 284.83)
)


// edges:

210
(
(0 1)
(2 3)
(4 0)
(3 5)
(6 4)
(5 7)
(8 6)
(7 9)
(10 8)
(9 11)
(12 10)
(11 13)
(14 12)
(13 15)
(16 14)
(15 17)
(18 16)
(17 19)
(20 18)
(19 21)
(22 20)
(21 23)
(24 22)
(23 25)
(26 24)
(25 27)
(28 26)
(27 29)
(30 28)
(29 31)
(32 30)
(31 33)
(34 32)
(33 35)
(36 34)
(35 37)
(38 36)
(37 39)
(40 38)
(39 41)
(42 40)
(41 43)
(44 42)
(43 45)
(46 44)
(45 47)
(48 46)
(47 49)
(50 48)
(49 51)
(52 50)
(51 53)
(54 52)
(53 55)
(56 54)
(55 57)
(58 56)
(57 59)
(60 58)
(59 61)
(62 60)
(61 63)
(64 62)
(63 65)
(66 64)
(65 67)
(68 66)
(67 69)
(70 68)
(69 71)
(72 70)
(71 73)
(74 72)
(73 75)
(76 74)
(75 77)
(78 76)
(77 79)
(80 78)
(79 81)
(82 80)
(81 83)
(84 82)
(83 85)
(86 84)
(85 87)
(88 86)
(87 89)
(90 88)
(89 91)
(92 90)
(91 93)
(94 92)
(93 95)
(96 94)
(95 97)
(98 96)
(97 99)
(100 98)
(99 101)
(102 100)
(101 103)
(104 102)
(103 105)
(106 104)
(105 107)
(108 106)
(107 109)
(110 108)
(109 111)
(112 110)
(111 113)
(114 112)
(113 115)
(116 114)
(115 117)
(118 116)
(117 119)
(120 118)
(119 121)
(122 120)
(121 123)
(124 122)
(123 125)
(126 124)
(125 127)
(128 126)
(127 129)
(130 128)
(129 131)
(132 130)
(131 133)
(134 132)
(133 135)
(136 134)
(135 137)
(138 136)
(137 139)
(140 138)
(139 141)
(142 140)
(141 143)
(144 142)
(143 145)
(146 144)
(145 147)
(148 146)
(147 149)
(150 148)
(149 151)
(152 150)
(151 153)
(154 152)
(153 155)
(156 154)
(155 157)
(158 156)
(157 159)
(160 158)
(159 161)
(162 160)
(161 163)
(164 162)
(163 165)
(166 164)
(165 167)
(168 166)
(167 169)
(170 168)
(169 171)
(172 170)
(171 173)
(174 172)
(173 175)
(176 174)
(175 177)
(178 176)
(177 179)
(180 178)
(179 181)
(182 180)
(181 183)
(184 182)
(183 185)
(186 184)
(185 187)
(188 186)
(187 189)
(190 188)
(189 191)
(192 190)
(191 193)
(194 192)
(193 195)
(196 194)
(195 197)
(198 196)
(197 199)
(200 198)
(199 201)
(202 200)
(201 203)
(204 202)
(203 205)
(206 204)
(205 207)
(208 206)
(207 209)
(1 208)
(209 2)
)

// * * * * * * * * * * * * * * * * * * * * * * * * * * * * * * * * * * * * * //


// ************************************************************************* //
