/*--------------------------------*- C++ -*----------------------------------*\
  =========                 |
  \\      /  F ield         | OpenFOAM: The Open Source CFD Toolbox
   \\    /   O peration     | Website:  https://openfoam.org
    \\  /    A nd           | Version:  8
     \\/     M anipulation  |
\*---------------------------------------------------------------------------*/
FoamFile
{
    version     2.0;
    format      ascii;
    class       featureEdgeMesh;
    location    "constant/triSurface";
    object      bottom.eMesh;
}
// * * * * * * * * * * * * * * * * * * * * * * * * * * * * * * * * * * * * * //


// points:

205
(
(0.00275281 4.51028e-17 0.0147452)
(0.0018575 4.68375e-17 0.0148846)
(0.0009554 4.68375e-17 0.0149695)
(4.98182e-05 4.68375e-17 0.0149999)
(-0.000855945 4.85723e-17 0.0149756)
(-0.00175858 4.85723e-17 0.0148966)
(-0.00265481 4.85723e-17 0.0147632)
(-0.00354135 5.0307e-17 0.014576)
(-0.00441496 5.0307e-17 0.0143356)
(-0.00527246 5.20417e-17 0.0140428)
(-0.00611073 5.20417e-17 0.0136989)
(-0.0069267 5.20417e-17 0.0133049)
(-0.00771739 5.37764e-17 0.0128624)
(-0.00847992 5.37764e-17 0.012373)
(-0.00921152 5.55112e-17 0.0118384)
(-0.0099095 5.55112e-17 0.0112606)
(-0.0105713 5.55112e-17 0.0106418)
(-0.0111946 5.55112e-17 0.00998407)
(-0.011777 5.55112e-17 0.00928995)
(-0.0123164 5.72459e-17 0.00856192)
(-0.0128109 5.89806e-17 0.00780266)
(-0.0132586 5.89806e-17 0.00701492)
(-0.013658 5.89806e-17 0.00620159)
(-0.0140075 5.89806e-17 0.00536563)
(-0.0143059 5.89806e-17 0.00451008)
(-0.0145521 5.89806e-17 0.00363809)
(-0.0147452 5.89806e-17 0.00275281)
(-0.0148846 5.89806e-17 0.0018575)
(-0.0149695 5.89806e-17 0.0009554)
(-0.0149999 5.89806e-17 4.98182e-05)
(-0.0149756 5.89806e-17 -0.000855945)
(-0.0148966 5.89806e-17 -0.00175858)
(-0.0147632 5.89806e-17 -0.00265481)
(-0.014576 5.89806e-17 -0.00354135)
(-0.0143356 5.89806e-17 -0.00441496)
(-0.0140428 5.89806e-17 -0.00527246)
(-0.0136989 5.89806e-17 -0.00611073)
(-0.0133049 5.89806e-17 -0.0069267)
(-0.0128624 5.89806e-17 -0.00771739)
(-0.012373 5.72459e-17 -0.00847992)
(-0.0118384 5.72459e-17 -0.00921152)
(-0.0112606 5.55112e-17 -0.0099095)
(-0.0106418 5.55112e-17 -0.0105713)
(-0.00998407 5.55112e-17 -0.0111946)
(-0.00928995 5.55112e-17 -0.011777)
(-0.00856192 5.37764e-17 -0.0123164)
(-0.00780266 5.20417e-17 -0.0128109)
(-0.00701492 5.20417e-17 -0.0132586)
(-0.00620159 5.20417e-17 -0.013658)
(-0.00536563 5.20417e-17 -0.0140075)
(-0.00451008 5.0307e-17 -0.0143059)
(-0.00363809 4.85723e-17 -0.0145521)
(-0.00275281 4.85723e-17 -0.0147452)
(-0.0018575 4.85723e-17 -0.0148846)
(-0.0009554 4.68375e-17 -0.0149695)
(-4.98182e-05 4.68375e-17 -0.0149999)
(0.000855945 4.68375e-17 -0.0149756)
(0.00175858 4.51028e-17 -0.0148966)
(0.00265481 4.51028e-17 -0.0147632)
(0.00354135 4.33681e-17 -0.014576)
(0.00441496 4.33681e-17 -0.0143356)
(0.00527246 4.33681e-17 -0.0140428)
(0.00611073 4.16334e-17 -0.0136989)
(0.0069267 4.16334e-17 -0.0133049)
(0.00771739 3.98986e-17 -0.0128624)
(0.00847992 3.98986e-17 -0.012373)
(0.00921152 3.98986e-17 -0.0118384)
(0.0099095 3.98986e-17 -0.0112606)
(0.0105713 3.81639e-17 -0.0106418)
(0.0111946 3.81639e-17 -0.00998407)
(0.011777 3.81639e-17 -0.00928995)
(0.0123164 3.64292e-17 -0.00856192)
(0.0128109 3.64292e-17 -0.00780266)
(0.0132586 3.64292e-17 -0.00701492)
(0.013658 3.64292e-17 -0.00620159)
(0.0140075 3.46945e-17 -0.00536563)
(0.0143059 3.46945e-17 -0.00451008)
(0.0145521 3.46945e-17 -0.00363809)
(0.0147452 3.46945e-17 -0.00275281)
(0.0148846 3.46945e-17 -0.0018575)
(0.0149695 3.46945e-17 -0.0009554)
(0.0149999 3.46945e-17 -4.98182e-05)
(0.0149756 3.46945e-17 0.000855945)
(0.0148966 3.46945e-17 0.00175858)
(0.0147632 3.64292e-17 0.00265481)
(0.014576 3.64292e-17 0.00354135)
(0.0143356 3.64292e-17 0.00441496)
(0.0140428 3.46945e-17 0.00527246)
(0.0136989 3.64292e-17 0.00611073)
(0.0133049 3.64292e-17 0.0069267)
(0.0128624 3.64292e-17 0.00771739)
(0.012373 3.64292e-17 0.00847992)
(0.0118384 3.64292e-17 0.00921152)
(0.0112606 3.81639e-17 0.0099095)
(0.0106418 3.81639e-17 0.0105713)
(0.00998407 3.98986e-17 0.0111946)
(0.00928995 3.98986e-17 0.011777)
(0.00856192 3.98986e-17 0.0123164)
(0.00780266 4.16334e-17 0.0128109)
(0.00701492 4.16334e-17 0.0132586)
(0.00620159 4.33681e-17 0.013658)
(0.00536563 4.33681e-17 0.0140075)
(0.00451008 4.33681e-17 0.0143059)
(0.00363809 4.51028e-17 0.0145521)
(0.00259398 4.51028e-17 0.0137576)
(0.00173366 4.68375e-17 0.0138922)
(0.00344427 4.51028e-17 0.0135697)
(0.00428123 4.33681e-17 0.0133293)
(0.00510163 4.33681e-17 0.0130374)
(0.00590229 4.33681e-17 0.012695)
(0.00668012 4.16334e-17 0.0123035)
(0.0074321 4.16334e-17 0.0118644)
(0.00815533 3.98986e-17 0.0113794)
(0.008847 3.98986e-17 0.0108504)
(0.00950445 3.98986e-17 0.0102794)
(0.0101251 3.98986e-17 0.00966859)
(0.0107066 3.81639e-17 0.00902041)
(0.0112467 3.81639e-17 0.00833734)
(0.0117433 3.64292e-17 0.007622)
(0.0121944 3.64292e-17 0.00687718)
(0.0125984 3.64292e-17 0.00610576)
(0.0129536 3.64292e-17 0.00531071)
(0.0132587 3.64292e-17 0.00449511)
(0.0135125 3.64292e-17 0.00366213)
(0.0137141 3.64292e-17 0.00281497)
(0.0138626 3.64292e-17 0.00195693)
(0.0139574 3.64292e-17 0.00109131)
(0.0139982 3.64292e-17 0.000221474)
(0.0139849 3.64292e-17 -0.00064922)
(0.0139175 3.64292e-17 -0.0015174)
(0.0137963 3.64292e-17 -0.00237971)
(0.0136216 3.64292e-17 -0.00323282)
(0.0133943 3.64292e-17 -0.00407342)
(0.0131151 3.64292e-17 -0.00489826)
(0.0127853 3.64292e-17 -0.00570415)
(0.0124059 3.64292e-17 -0.00648797)
(0.0119785 3.64292e-17 -0.00724669)
(0.0115049 3.64292e-17 -0.00797737)
(0.0109866 3.81639e-17 -0.00867719)
(0.0104259 3.98986e-17 -0.00934344)
(0.00982489 3.98986e-17 -0.00997354)
(0.00918583 3.98986e-17 -0.0105651)
(0.00851124 3.98986e-17 -0.0111157)
(0.00780371 3.98986e-17 -0.0116233)
(0.007066 4.16334e-17 -0.012086)
(0.00630095 4.16334e-17 -0.0125019)
(0.00551152 4.33681e-17 -0.0128695)
(0.00470077 4.33681e-17 -0.0131872)
(0.00387183 4.33681e-17 -0.013454)
(0.00302791 4.51028e-17 -0.0136686)
(0.00217228 4.51028e-17 -0.0138304)
(0.00130824 4.68375e-17 -0.0139387)
(0.000439145 4.68375e-17 -0.0139931)
(-0.000431651 4.68375e-17 -0.0139933)
(-0.00130078 4.85723e-17 -0.0139394)
(-0.00216487 4.85723e-17 -0.0138316)
(-0.00302059 4.85723e-17 -0.0136703)
(-0.00386462 5.0307e-17 -0.013456)
(-0.0046937 5.0307e-17 -0.0131897)
(-0.00550462 5.20417e-17 -0.0128724)
(-0.00629425 5.20417e-17 -0.0125053)
(-0.00705952 5.20417e-17 -0.0120898)
(-0.00779749 5.37764e-17 -0.0116275)
(-0.00850528 5.37764e-17 -0.0111203)
(-0.00918017 5.55112e-17 -0.01057)
(-0.00981954 5.55112e-17 -0.00997881)
(-0.0104209 5.55112e-17 -0.00934902)
(-0.010982 5.55112e-17 -0.00868308)
(-0.0115006 5.72459e-17 -0.00798353)
(-0.0119747 5.72459e-17 -0.0072531)
(-0.0124024 5.72459e-17 -0.00649461)
(-0.0127822 5.89806e-17 -0.00571099)
(-0.0131125 5.72459e-17 -0.00490528)
(-0.0133921 5.72459e-17 -0.00408059)
(-0.0136199 5.89806e-17 -0.00324012)
(-0.013795 5.89806e-17 -0.0023871)
(-0.0139167 5.89806e-17 -0.00152486)
(-0.0139846 5.89806e-17 -0.000656711)
(-0.0139984 5.89806e-17 0.000213976)
(-0.013958 5.89806e-17 0.00108384)
(-0.0138636 5.89806e-17 0.0019495)
(-0.0137156 5.89806e-17 0.00280763)
(-0.0135145 5.89806e-17 0.00365489)
(-0.0132611 5.89806e-17 0.00448801)
(-0.0129565 5.89806e-17 0.00530377)
(-0.0126017 5.89806e-17 0.00609901)
(-0.0121981 5.72459e-17 0.00687065)
(-0.0117474 5.72459e-17 0.00761571)
(-0.0112512 5.55112e-17 0.00833131)
(-0.0107115 5.55112e-17 0.00901468)
(-0.0101303 5.55112e-17 0.00966317)
(-0.00950996 5.55112e-17 0.0102743)
(-0.00885282 5.37764e-17 0.0108456)
(-0.00816142 5.37764e-17 0.011375)
(-0.00743845 5.20417e-17 0.0118604)
(-0.00668671 5.20417e-17 0.0122999)
(-0.00590909 5.20417e-17 0.0126918)
(-0.00510861 5.20417e-17 0.0130347)
(-0.00428837 5.0307e-17 0.013327)
(-0.00345154 5.0307e-17 0.0135679)
(-0.00260135 4.85723e-17 0.0137562)
(-0.0017411 4.85723e-17 0.0138913)
(-0.000874117 4.85723e-17 0.0139727)
(-3.74929e-06 4.68375e-17 0.014)
(0.000866633 4.68375e-17 0.0139732)
)


// edges:

205
(
(0 1)
(1 2)
(2 3)
(3 4)
(4 5)
(5 6)
(6 7)
(7 8)
(8 9)
(9 10)
(10 11)
(11 12)
(12 13)
(13 14)
(14 15)
(15 16)
(16 17)
(17 18)
(18 19)
(19 20)
(20 21)
(21 22)
(22 23)
(23 24)
(24 25)
(25 26)
(26 27)
(27 28)
(28 29)
(29 30)
(30 31)
(31 32)
(32 33)
(33 34)
(34 35)
(35 36)
(36 37)
(37 38)
(38 39)
(39 40)
(40 41)
(41 42)
(42 43)
(43 44)
(44 45)
(45 46)
(46 47)
(47 48)
(48 49)
(49 50)
(50 51)
(51 52)
(52 53)
(53 54)
(54 55)
(55 56)
(56 57)
(57 58)
(58 59)
(59 60)
(60 61)
(61 62)
(62 63)
(63 64)
(64 65)
(65 66)
(66 67)
(67 68)
(68 69)
(69 70)
(70 71)
(71 72)
(72 73)
(73 74)
(74 75)
(75 76)
(76 77)
(77 78)
(78 79)
(79 80)
(80 81)
(81 82)
(82 83)
(83 84)
(84 85)
(85 86)
(86 87)
(87 88)
(88 89)
(89 90)
(90 91)
(91 92)
(92 93)
(93 94)
(94 95)
(95 96)
(96 97)
(97 98)
(98 99)
(99 100)
(100 101)
(101 102)
(102 103)
(103 0)
(104 105)
(106 104)
(107 106)
(108 107)
(109 108)
(110 109)
(111 110)
(112 111)
(113 112)
(114 113)
(115 114)
(116 115)
(117 116)
(118 117)
(119 118)
(120 119)
(121 120)
(122 121)
(123 122)
(124 123)
(125 124)
(126 125)
(127 126)
(128 127)
(129 128)
(130 129)
(131 130)
(132 131)
(133 132)
(134 133)
(135 134)
(136 135)
(137 136)
(138 137)
(139 138)
(140 139)
(141 140)
(142 141)
(143 142)
(144 143)
(145 144)
(146 145)
(147 146)
(148 147)
(149 148)
(150 149)
(151 150)
(152 151)
(153 152)
(154 153)
(155 154)
(156 155)
(157 156)
(158 157)
(159 158)
(160 159)
(161 160)
(162 161)
(163 162)
(164 163)
(165 164)
(166 165)
(167 166)
(168 167)
(169 168)
(170 169)
(171 170)
(172 171)
(173 172)
(174 173)
(175 174)
(176 175)
(177 176)
(178 177)
(179 178)
(180 179)
(181 180)
(182 181)
(183 182)
(184 183)
(185 184)
(186 185)
(187 186)
(188 187)
(189 188)
(190 189)
(191 190)
(192 191)
(193 192)
(194 193)
(195 194)
(196 195)
(197 196)
(198 197)
(199 198)
(200 199)
(201 200)
(202 201)
(203 202)
(204 203)
(105 204)
)

// * * * * * * * * * * * * * * * * * * * * * * * * * * * * * * * * * * * * * //


// ************************************************************************* //
