/*--------------------------------*- C++ -*----------------------------------*\
  =========                 |
  \\      /  F ield         | OpenFOAM: The Open Source CFD Toolbox
   \\    /   O peration     | Website:  https://openfoam.org
    \\  /    A nd           | Version:  8
     \\/     M anipulation  |
\*---------------------------------------------------------------------------*/
FoamFile
{
    version     2.0;
    format      ascii;
    class       featureEdgeMesh;
    location    "constant/triSurface";
    object      RF.eMesh;
}
// * * * * * * * * * * * * * * * * * * * * * * * * * * * * * * * * * * * * * //


// points:

200
(
(-0.00760845 0.007 0.00247214)
(-0.00774866 0.007 0.00198952)
(-0.00774866 -0.003 0.00198952)
(-0.00760845 -0.003 0.00247214)
(-0.00743821 0.007 0.002945)
(-0.00743821 -0.003 0.002945)
(-0.00723862 0.007 0.00340623)
(-0.00723862 -0.003 0.00340623)
(-0.00701045 0.007 0.00385403)
(-0.00701045 -0.003 0.00385403)
(-0.00675462 0.007 0.00428661)
(-0.00675462 -0.003 0.00428661)
(-0.00647214 0.007 0.00470228)
(-0.00647214 -0.003 0.00470228)
(-0.00616411 0.007 0.00509939)
(-0.00616411 -0.003 0.00509939)
(-0.00583175 0.007 0.00547638)
(-0.00583175 -0.003 0.00547638)
(-0.00547638 0.007 0.00583175)
(-0.00547638 -0.003 0.00583175)
(-0.00509939 0.007 0.00616411)
(-0.00509939 -0.003 0.00616411)
(-0.00470228 0.007 0.00647214)
(-0.00470228 -0.003 0.00647214)
(-0.00428661 0.007 0.00675462)
(-0.00428661 -0.003 0.00675462)
(-0.00385403 0.007 0.00701045)
(-0.00385403 -0.003 0.00701045)
(-0.00340623 0.007 0.00723862)
(-0.00340623 -0.003 0.00723862)
(-0.002945 0.007 0.00743821)
(-0.002945 -0.003 0.00743821)
(-0.00247214 0.007 0.00760845)
(-0.00247214 -0.003 0.00760845)
(-0.00198952 0.007 0.00774866)
(-0.00198952 -0.003 0.00774866)
(-0.00149905 0.007 0.0078583)
(-0.00149905 -0.003 0.0078583)
(-0.00100267 0.007 0.00793692)
(-0.00100267 -0.003 0.00793692)
(-0.000502324 0.007 0.00798421)
(-0.000502324 -0.003 0.00798421)
(1.70495e-16 0.007 0.008)
(1.86593e-16 -0.003 0.008)
(0.000502324 0.007 0.00798421)
(0.000502324 -0.003 0.00798421)
(0.00100267 0.007 0.00793692)
(0.00100267 -0.003 0.00793692)
(0.00149905 0.007 0.0078583)
(0.00149905 -0.003 0.0078583)
(0.00198952 0.007 0.00774866)
(0.00198952 -0.003 0.00774866)
(0.00247214 0.007 0.00760845)
(0.00247214 -0.003 0.00760845)
(0.002945 0.007 0.00743821)
(0.002945 -0.003 0.00743821)
(0.00340623 0.007 0.00723862)
(0.00340623 -0.003 0.00723862)
(0.00385403 0.007 0.00701045)
(0.00385403 -0.003 0.00701045)
(0.00428661 0.007 0.00675462)
(0.00428661 -0.003 0.00675462)
(0.00470228 0.007 0.00647214)
(0.00470228 -0.003 0.00647214)
(0.00509939 0.007 0.00616411)
(0.00509939 -0.003 0.00616411)
(0.00547638 0.007 0.00583175)
(0.00547638 -0.003 0.00583175)
(0.00583175 0.007 0.00547638)
(0.00583175 -0.003 0.00547638)
(0.00616411 0.007 0.00509939)
(0.00616411 -0.003 0.00509939)
(0.00647214 0.007 0.00470228)
(0.00647214 -0.003 0.00470228)
(0.00675462 0.007 0.00428661)
(0.00675462 -0.003 0.00428661)
(0.00701045 0.007 0.00385403)
(0.00701045 -0.003 0.00385403)
(0.00723862 0.007 0.00340623)
(0.00723862 -0.003 0.00340623)
(0.00743821 0.007 0.002945)
(0.00743821 -0.003 0.002945)
(0.00760845 0.007 0.00247214)
(0.00760845 -0.003 0.00247214)
(0.00774866 0.007 0.00198952)
(0.00774866 -0.003 0.00198952)
(0.0078583 0.007 0.00149905)
(0.0078583 -0.003 0.00149905)
(0.00793692 0.007 0.00100267)
(0.00793692 -0.003 0.00100267)
(0.00798421 0.007 0.000502324)
(0.00798421 -0.003 0.000502324)
(0.008 0.007 2.7186e-16)
(0.008 -0.003 3.02392e-16)
(0.00798421 0.007 -0.000502324)
(0.00798421 -0.003 -0.000502324)
(0.00793692 0.007 -0.00100267)
(0.00793692 -0.003 -0.00100267)
(0.0078583 0.007 -0.00149905)
(0.0078583 -0.003 -0.00149905)
(0.00774866 0.007 -0.00198952)
(0.00774866 -0.003 -0.00198952)
(0.00760845 0.007 -0.00247214)
(0.00760845 -0.003 -0.00247214)
(0.00743821 0.007 -0.002945)
(0.00743821 -0.003 -0.002945)
(0.00723862 0.007 -0.00340623)
(0.00723862 -0.003 -0.00340623)
(0.00701045 0.007 -0.00385403)
(0.00701045 -0.003 -0.00385403)
(0.00675462 0.007 -0.00428661)
(0.00675462 -0.003 -0.00428661)
(0.00647214 0.007 -0.00470228)
(0.00647214 -0.003 -0.00470228)
(0.00616411 0.007 -0.00509939)
(0.00616411 -0.003 -0.00509939)
(0.00583175 0.007 -0.00547638)
(0.00583175 -0.003 -0.00547638)
(0.00547638 0.007 -0.00583175)
(0.00547638 -0.003 -0.00583175)
(0.00509939 0.007 -0.00616411)
(0.00509939 -0.003 -0.00616411)
(0.00470228 0.007 -0.00647214)
(0.00470228 -0.003 -0.00647214)
(0.00428661 0.007 -0.00675462)
(0.00428661 -0.003 -0.00675462)
(0.00385403 0.007 -0.00701045)
(0.00385403 -0.003 -0.00701045)
(0.00340623 0.007 -0.00723862)
(0.00340623 -0.003 -0.00723862)
(0.002945 0.007 -0.00743821)
(0.002945 -0.003 -0.00743821)
(0.00247214 0.007 -0.00760845)
(0.00247214 -0.003 -0.00760845)
(0.00198952 0.007 -0.00774866)
(0.00198952 -0.003 -0.00774866)
(0.00149905 0.007 -0.0078583)
(0.00149905 -0.003 -0.0078583)
(0.00100267 0.007 -0.00793692)
(0.00100267 -0.003 -0.00793692)
(0.000502324 0.007 -0.00798421)
(0.000502324 -0.003 -0.00798421)
(2.06577e-16 0.007 -0.008)
(2.22675e-16 -0.003 -0.008)
(-0.000502324 0.007 -0.00798421)
(-0.000502324 -0.003 -0.00798421)
(-0.00100267 0.007 -0.00793692)
(-0.00100267 -0.003 -0.00793692)
(-0.00149905 0.007 -0.0078583)
(-0.00149905 -0.003 -0.0078583)
(-0.00198952 0.007 -0.00774866)
(-0.00198952 -0.003 -0.00774866)
(-0.00247214 0.007 -0.00760845)
(-0.00247214 -0.003 -0.00760845)
(-0.002945 0.007 -0.00743821)
(-0.002945 -0.003 -0.00743821)
(-0.00340623 0.007 -0.00723862)
(-0.00340623 -0.003 -0.00723862)
(-0.00385403 0.007 -0.00701045)
(-0.00385403 -0.003 -0.00701045)
(-0.00428661 0.007 -0.00675462)
(-0.00428661 -0.003 -0.00675462)
(-0.00470228 0.007 -0.00647214)
(-0.00470228 -0.003 -0.00647214)
(-0.00509939 0.007 -0.00616411)
(-0.00509939 -0.003 -0.00616411)
(-0.00547638 0.007 -0.00583175)
(-0.00547638 -0.003 -0.00583175)
(-0.00583175 0.007 -0.00547638)
(-0.00583175 -0.003 -0.00547638)
(-0.00616411 0.007 -0.00509939)
(-0.00616411 -0.003 -0.00509939)
(-0.00647214 0.007 -0.00470228)
(-0.00647214 -0.003 -0.00470228)
(-0.00675462 0.007 -0.00428661)
(-0.00675462 -0.003 -0.00428661)
(-0.00701045 0.007 -0.00385403)
(-0.00701045 -0.003 -0.00385403)
(-0.00723862 0.007 -0.00340623)
(-0.00723862 -0.003 -0.00340623)
(-0.00743821 0.007 -0.002945)
(-0.00743821 -0.003 -0.002945)
(-0.00760845 0.007 -0.00247214)
(-0.00760845 -0.003 -0.00247214)
(-0.00774866 0.007 -0.00198952)
(-0.00774866 -0.003 -0.00198952)
(-0.0078583 0.007 -0.00149905)
(-0.0078583 -0.003 -0.00149905)
(-0.00793692 0.007 -0.00100267)
(-0.00793692 -0.003 -0.00100267)
(-0.00798421 0.007 -0.000502324)
(-0.00798421 -0.003 -0.000502324)
(-0.008 0.007 2.45493e-16)
(-0.008 -0.003 2.76024e-16)
(-0.00798421 0.007 0.000502324)
(-0.00798421 -0.003 0.000502324)
(-0.00793692 0.007 0.00100267)
(-0.00793692 -0.003 0.00100267)
(-0.0078583 0.007 0.00149905)
(-0.0078583 -0.003 0.00149905)
)


// edges:

200
(
(0 1)
(2 3)
(4 0)
(3 5)
(6 4)
(5 7)
(8 6)
(7 9)
(10 8)
(9 11)
(12 10)
(11 13)
(14 12)
(13 15)
(16 14)
(15 17)
(18 16)
(17 19)
(20 18)
(19 21)
(22 20)
(21 23)
(24 22)
(23 25)
(26 24)
(25 27)
(28 26)
(27 29)
(30 28)
(29 31)
(32 30)
(31 33)
(34 32)
(33 35)
(36 34)
(35 37)
(38 36)
(37 39)
(40 38)
(39 41)
(42 40)
(41 43)
(44 42)
(43 45)
(46 44)
(45 47)
(48 46)
(47 49)
(50 48)
(49 51)
(52 50)
(51 53)
(54 52)
(53 55)
(56 54)
(55 57)
(58 56)
(57 59)
(60 58)
(59 61)
(62 60)
(61 63)
(64 62)
(63 65)
(66 64)
(65 67)
(68 66)
(67 69)
(70 68)
(69 71)
(72 70)
(71 73)
(74 72)
(73 75)
(76 74)
(75 77)
(78 76)
(77 79)
(80 78)
(79 81)
(82 80)
(81 83)
(84 82)
(83 85)
(86 84)
(85 87)
(88 86)
(87 89)
(90 88)
(89 91)
(92 90)
(91 93)
(94 92)
(93 95)
(96 94)
(95 97)
(98 96)
(97 99)
(100 98)
(99 101)
(102 100)
(101 103)
(104 102)
(103 105)
(106 104)
(105 107)
(108 106)
(107 109)
(110 108)
(109 111)
(112 110)
(111 113)
(114 112)
(113 115)
(116 114)
(115 117)
(118 116)
(117 119)
(120 118)
(119 121)
(122 120)
(121 123)
(124 122)
(123 125)
(126 124)
(125 127)
(128 126)
(127 129)
(130 128)
(129 131)
(132 130)
(131 133)
(134 132)
(133 135)
(136 134)
(135 137)
(138 136)
(137 139)
(140 138)
(139 141)
(142 140)
(141 143)
(144 142)
(143 145)
(146 144)
(145 147)
(148 146)
(147 149)
(150 148)
(149 151)
(152 150)
(151 153)
(154 152)
(153 155)
(156 154)
(155 157)
(158 156)
(157 159)
(160 158)
(159 161)
(162 160)
(161 163)
(164 162)
(163 165)
(166 164)
(165 167)
(168 166)
(167 169)
(170 168)
(169 171)
(172 170)
(171 173)
(174 172)
(173 175)
(176 174)
(175 177)
(178 176)
(177 179)
(180 178)
(179 181)
(182 180)
(181 183)
(184 182)
(183 185)
(186 184)
(185 187)
(188 186)
(187 189)
(190 188)
(189 191)
(192 190)
(191 193)
(194 192)
(193 195)
(196 194)
(195 197)
(198 196)
(197 199)
(1 198)
(199 2)
)

// * * * * * * * * * * * * * * * * * * * * * * * * * * * * * * * * * * * * * //


// ************************************************************************* //
