/*--------------------------------*- C++ -*----------------------------------*\
  =========                 |
  \\      /  F ield         | OpenFOAM: The Open Source CFD Toolbox
   \\    /   O peration     | Website:  https://openfoam.org
    \\  /    A nd           | Version:  8
     \\/     M anipulation  |
\*---------------------------------------------------------------------------*/
FoamFile
{
    version     2.0;
    format      ascii;
    class       featureEdgeMesh;
    location    "constant/triSurface";
    object      stirrer.eMesh;
}
// * * * * * * * * * * * * * * * * * * * * * * * * * * * * * * * * * * * * * //


// points:

93
(
(0.00168759 0.000910833 0.0068119)
(0.00263865 0.000910833 0.00650289)
(0.00263865 0.00391083 0.00650289)
(0.00168759 0.00391083 0.0068119)
(-0.00595701 0.000910833 0.00370999)
(-0.00536923 0.000910833 0.004519)
(-0.00536923 0.00391083 0.004519)
(-0.00595701 0.00391083 0.00370999)
(-0.00536923 0.000910833 -0.004519)
(-0.00595701 0.000910833 -0.00370999)
(-0.00595701 0.00391083 -0.00370999)
(-0.00536923 0.00391083 -0.004519)
(0.00263865 0.000910833 -0.00650289)
(0.00168759 0.000910833 -0.0068119)
(0.00168759 0.00391083 -0.0068119)
(0.00263865 0.00391083 -0.00650289)
(0.007 0.000910833 0.0005)
(0.007 0.000910833 -0.0005)
(0.007 0.00391083 -0.0005)
(0.007 0.00391083 0.0005)
(0.000122881 0.000910833 0.00199622)
(0.00107394 0.000910833 0.00168721)
(0.00107394 0.00391083 0.00168721)
(0.000122881 0.00391083 0.00199622)
(-0.00186055 0.000910833 0.000733733)
(-0.00127276 0.000910833 0.00154275)
(-0.00127276 0.00391083 0.00154275)
(-0.00186055 0.00391083 0.000733733)
(-0.00127276 0.000910833 -0.00154275)
(-0.00186055 0.000910833 -0.000733733)
(-0.00186055 0.00391083 -0.000733733)
(-0.00127276 0.00391083 -0.00154275)
(0.00107394 0.000910833 -0.00168721)
(0.000122881 0.000910833 -0.00199622)
(0.000122881 0.00391083 -0.00199622)
(0.00107394 0.00391083 -0.00168721)
(0.00193649 0.000910833 0.0005)
(0.00193649 0.000910833 -0.0005)
(0.00193649 0.00391083 -0.0005)
(0.00193649 0.00391083 0.0005)
(0.001 0.052 0.00173205)
(0.000654136 0.052 0.00189)
(-9.51638e-05 0.052 0.00199773)
(-0.000471518 0.052 0.00194362)
(-0.00185674 0.052 -0.000743325)
(-0.00168251 0.052 -0.00108128)
(0.00191899 0.052 -0.000563465)
(0.00199094 0.052 -0.000190112)
(0.00177767 0.052 0.000916453)
(0.00157211 0.052 0.00123632)
(-0.002 0.052 1.07523e-16)
(-0.00196386 0.052 -0.000378503)
(-0.00196386 0.052 0.000378503)
(-0.00185674 0.052 0.000743325)
(-0.00168251 0.052 0.00108128)
(-0.00144747 0.052 0.00138016)
(-0.00116011 0.052 0.00162915)
(-0.00083083 0.052 0.00181926)
(-0.00144747 0.052 -0.00138016)
(-0.00116011 0.052 -0.00162915)
(-0.00083083 0.052 -0.00181926)
(-0.000471518 0.052 -0.00194362)
(-9.51638e-05 0.052 -0.00199773)
(0.00028463 0.052 -0.00197964)
(0.000654136 0.052 -0.00189)
(0.001 0.052 -0.00173205)
(0.00130972 0.052 -0.0015115)
(0.00157211 0.052 -0.00123632)
(0.00177767 0.052 -0.000916453)
(0.00199094 0.052 0.000190112)
(0.00191899 0.052 0.000563465)
(0.00130972 0.052 0.0015115)
(0.00028463 0.052 0.00197964)
(0.000455824 0.000910833 0.00194736)
(0.000775862 0.000910833 0.00184338)
(0.000775862 0.00391083 0.00184338)
(0.000455824 0.00391083 0.00194736)
(-0.0017112 0.000910833 0.00103528)
(-0.0015134 0.000910833 0.00130752)
(-0.0015134 0.00391083 0.00130752)
(-0.0017112 0.00391083 0.00103528)
(-0.0015134 0.000910833 -0.00130752)
(-0.0017112 0.000910833 -0.00103528)
(-0.0017112 0.00391083 -0.00103528)
(-0.0015134 0.00391083 -0.00130752)
(0.000775862 0.000910833 -0.00184338)
(0.000455824 0.000910833 -0.00194736)
(0.000455824 0.00391083 -0.00194736)
(0.000775862 0.00391083 -0.00184338)
(0.00199291 0.000910833 0.000168254)
(0.00199291 0.000910833 -0.000168254)
(0.00199291 0.00391083 -0.000168254)
(0.00199291 0.00391083 0.000168254)
)


// edges:

113
(
(0 20)
(1 0)
(21 1)
(22 2)
(2 1)
(2 3)
(3 0)
(23 3)
(4 24)
(5 4)
(25 5)
(26 6)
(6 5)
(6 7)
(7 4)
(27 7)
(8 28)
(9 8)
(29 9)
(30 10)
(10 9)
(10 11)
(11 8)
(31 11)
(12 32)
(13 12)
(33 13)
(34 14)
(14 13)
(14 15)
(15 12)
(35 15)
(16 36)
(17 16)
(37 17)
(38 18)
(18 17)
(18 19)
(19 16)
(39 19)
(40 41)
(42 43)
(44 45)
(46 47)
(48 49)
(50 51)
(52 50)
(53 52)
(54 53)
(55 54)
(56 55)
(57 56)
(43 57)
(51 44)
(45 58)
(58 59)
(59 60)
(60 61)
(61 62)
(62 63)
(63 64)
(64 65)
(65 66)
(66 67)
(67 68)
(68 46)
(47 69)
(69 70)
(70 48)
(49 71)
(71 40)
(41 72)
(72 42)
(20 73)
(73 74)
(74 21)
(21 22)
(22 75)
(75 76)
(76 23)
(23 20)
(24 77)
(77 78)
(78 25)
(25 26)
(26 79)
(79 80)
(80 27)
(27 24)
(28 81)
(81 82)
(82 29)
(29 30)
(30 83)
(83 84)
(84 31)
(31 28)
(32 85)
(85 86)
(86 33)
(33 34)
(34 87)
(87 88)
(88 35)
(35 32)
(36 89)
(89 90)
(90 37)
(37 38)
(38 91)
(91 92)
(92 39)
(39 36)
)

// * * * * * * * * * * * * * * * * * * * * * * * * * * * * * * * * * * * * * //


// ************************************************************************* //
