/*--------------------------------*- C++ -*----------------------------------*\
  =========                 |
  \\      /  F ield         | OpenFOAM: The Open Source CFD Toolbox
   \\    /   O peration     | Website:  https://openfoam.org
    \\  /    A nd           | Version:  8
     \\/     M anipulation  |
\*---------------------------------------------------------------------------*/
FoamFile
{
    version     2.0;
    format      binary;
    class       polyBoundaryMesh;
    location    "constant/polyMesh";
    object      boundary;
}
// * * * * * * * * * * * * * * * * * * * * * * * * * * * * * * * * * * * * * //

6
(
    rotor
    {
        type            wall;
        inGroups        List<word> 1(wall);
        nFaces          192;
        startFace       5856;
    }
    stator
    {
        type            wall;
        inGroups        List<word> 1(wall);
        nFaces          192;
        startFace       6048;
    }
    AMI1
    {
        type            cyclicAMI;
        inGroups        List<word> 1(cyclicAMI);
        nFaces          96;
        startFace       6240;
        matchTolerance  0.0001;
        neighbourPatch  AMI2;
        transformType   none;
        method          faceAreaWeightAMI;
    }
    AMI2
    {
        type            cyclicAMI;
        inGroups        List<word> 1(cyclicAMI);
        nFaces          96;
        startFace       6336;
        matchTolerance  0.0001;
        neighbourPatch  AMI1;
        transformType   none;
        method          faceAreaWeightAMI;
    }
    front
    {
        type            empty;
        inGroups        List<word> 1(empty);
        nFaces          3072;
        startFace       6432;
    }
    back
    {
        type            empty;
        inGroups        List<word> 1(empty);
        nFaces          3072;
        startFace       9504;
    }
)

// ************************************************************************* //
