/*--------------------------------*- C++ -*----------------------------------*\
  =========                 |
  \\      /  F ield         | OpenFOAM: The Open Source CFD Toolbox
   \\    /   O peration     | Website:  https://openfoam.org
    \\  /    A nd           | Version:  8
     \\/     M anipulation  |
\*---------------------------------------------------------------------------*/
FoamFile
{
    version     2.0;
    format      ascii;
    class       vectorField;
    object      kinematicCloudPositions;
}
// * * * * * * * * * * * * * * * * * * * * * * * * * * * * * * * * * * * * * //

(
(0.0223075 0.00293684 0.005)
(0.0207873 0.00861038 0.005)
(0.0178505 0.0136971 0.005)
(0.0136971 0.0178505 0.005)
(0.00861038 0.0207873 0.005)
(0.00293684 0.0223075 0.005)
(-0.00293684 0.0223075 0.005)
(-0.00861038 0.0207873 0.005)
(-0.0136971 0.0178505 0.005)
(-0.0178505 0.0136971 0.005)
)


// ************************************************************************* //
