/*--------------------------------*- C++ -*----------------------------------*\
  =========                 |
  \\      /  F ield         | OpenFOAM: The Open Source CFD Toolbox
   \\    /   O peration     | Website:  https://openfoam.org
    \\  /    A nd           | Version:  8
     \\/     M anipulation  |
\*---------------------------------------------------------------------------*/
FoamFile
{
    version     2.0;
    format      ascii;
    class       extendedFeatureEdgeMesh;
    location    "constant/extendedFeatureEdgeMesh";
    object      BOTTOM.extendedFeatureEdgeMesh;
}
// * * * * * * * * * * * * * * * * * * * * * * * * * * * * * * * * * * * * * //

// points

205
(
(81.5993 63.7507 5.68434e-14)
(77.4781 68.7004 5.68434e-14)
(85.4048 58.5544 5.68434e-14)
(88.8799 53.1316 5.68434e-14)
(92.0112 47.5032 4.9738e-14)
(94.7864 41.691 4.9738e-14)
(97.195 35.7175 4.9738e-14)
(99.2275 29.6058 4.9738e-14)
(100.876 23.3796 4.9738e-14)
(102.134 17.0629 4.9738e-14)
(102.998 10.6803 4.9738e-14)
(103.463 4.25628 4.9738e-14)
(103.527 -2.18418 4.26326e-14)
(103.191 -8.61619 4.26326e-14)
(102.456 -15.0149 4.26326e-14)
(101.324 -21.3554 4.26326e-14)
(99.8003 -27.6134 3.55271e-14)
(97.8905 -33.7645 3.55271e-14)
(95.6021 -39.785 3.55271e-14)
(92.9437 -45.6516 2.84217e-14)
(89.9258 -51.3416 2.84217e-14)
(86.5599 -56.8329 2.84217e-14)
(82.8592 -62.1044 1.42108e-14)
(78.8379 -67.1356 1.42108e-14)
(74.5116 -71.9071 1.42108e-14)
(69.897 -76.4003 7.10543e-15)
(65.012 -80.598 7.10543e-15)
(59.8755 -84.4839 7.10543e-15)
(54.5074 -88.0429 0)
(48.9283 -91.2613 0)
(43.16 -94.1266 0)
(37.2247 -96.6278 -1.42108e-14)
(31.1454 -98.7551 -1.42108e-14)
(24.9456 -100.5 -1.42108e-14)
(18.6493 -101.857 -2.13163e-14)
(12.2808 -102.819 -2.13163e-14)
(5.86479 -103.384 -2.13163e-14)
(-0.573888 -103.548 -2.13163e-14)
(-7.01034 -103.312 -2.84217e-14)
(-13.4197 -102.677 -2.84217e-14)
(-19.7771 -101.644 -2.84217e-14)
(-26.058 -100.218 -2.84217e-14)
(-32.2381 -98.4038 -3.55271e-14)
(-38.2935 -96.2092 -3.55271e-14)
(-44.2007 -93.6424 -3.55271e-14)
(-49.9369 -90.7133 -3.55271e-14)
(-55.4799 -87.4333 -3.55271e-14)
(-60.8083 -83.815 -3.55271e-14)
(-65.9014 -79.8725 -3.55271e-14)
(-70.7396 -75.6209 -4.26326e-14)
(-75.304 -71.0767 -4.26326e-14)
(-79.5772 -66.2576 -4.26326e-14)
(-83.5425 -61.1822 -4.26326e-14)
(-87.1845 -55.87 -4.26326e-14)
(-90.4893 -50.3417 -4.26326e-14)
(-93.444 -44.6186 -3.55271e-14)
(-96.0372 -38.7229 -3.55271e-14)
(-98.2588 -32.6774 -3.55271e-14)
(-100.1 -26.5055 -3.55271e-14)
(-101.554 -20.2311 -3.55271e-14)
(-102.616 -13.8783 -3.55271e-14)
(-103.28 -7.47189 -3.55271e-14)
(-103.545 -1.03655 -2.84217e-14)
(-103.409 5.4028 -2.84217e-14)
(-102.873 11.8212 -2.84217e-14)
(-101.939 18.194 -2.84217e-14)
(-100.611 24.4963 -2.13163e-14)
(-98.8933 30.7038 -2.13163e-14)
(-96.7931 36.7926 -2.13163e-14)
(-94.3185 42.739 -2.13163e-14)
(-91.479 48.5201 -1.42108e-14)
(-88.2855 54.1134 -1.42108e-14)
(-84.7505 59.4975 -1.42108e-14)
(-80.8877 64.6513 0)
(-76.7119 69.555 0)
(-72.2393 74.1896 0)
(-67.4872 78.5371 7.10543e-15)
(-62.474 82.5809 7.10543e-15)
(-57.2191 86.3051 7.10543e-15)
(-51.7429 89.6955 1.42108e-14)
(-46.0665 92.7388 1.42108e-14)
(-40.2118 95.4233 1.42108e-14)
(-34.2016 97.7387 2.84217e-14)
(-28.0591 99.6759 2.84217e-14)
(-21.808 101.228 2.84217e-14)
(-15.4725 102.387 3.55271e-14)
(-9.07717 103.151 3.55271e-14)
(-2.64673 103.516 3.55271e-14)
(3.79395 103.48 4.26326e-14)
(10.22 103.044 4.26326e-14)
(16.6064 102.21 4.26326e-14)
(22.9286 100.98 4.26326e-14)
(29.1621 99.3588 4.9738e-14)
(35.2828 97.3536 4.9738e-14)
(41.267 94.9718 4.9738e-14)
(47.0916 92.2225 4.9738e-14)
(52.7339 89.1164 4.9738e-14)
(58.1722 85.6656 4.9738e-14)
(63.3855 81.8833 4.9738e-14)
(68.3536 77.7843 4.9738e-14)
(73.0571 73.3843 5.68434e-14)
(86.3274 67.4446 5.68434e-14)
(90.2421 62.1093 5.68434e-14)
(82.0977 72.5339 5.68434e-14)
(77.5684 77.3585 5.68434e-14)
(72.7561 81.9008 5.68434e-14)
(67.6783 86.1443 5.68434e-14)
(62.3536 90.0735 5.68434e-14)
(56.8013 93.674 5.68434e-14)
(51.0418 96.9326 4.9738e-14)
(45.096 99.8376 4.9738e-14)
(38.9857 102.378 4.9738e-14)
(32.7332 104.545 4.9738e-14)
(26.3611 106.331 4.9738e-14)
(19.8929 107.729 4.26326e-14)
(13.3521 108.733 4.26326e-14)
(6.76262 109.341 4.26326e-14)
(0.148437 109.55 4.26326e-14)
(-6.46629 109.359 3.55271e-14)
(-13.0574 108.769 3.55271e-14)
(-19.6009 107.782 3.55271e-14)
(-26.0729 106.402 2.84217e-14)
(-32.4497 104.634 2.84217e-14)
(-38.7081 102.484 2.84217e-14)
(-44.8253 99.9595 1.42108e-14)
(-50.7789 97.0706 1.42108e-14)
(-56.5473 93.8275 1.42108e-14)
(-62.1093 90.2421 7.10543e-15)
(-67.4446 86.3274 7.10543e-15)
(-72.5339 82.0977 7.10543e-15)
(-77.3585 77.5684 0)
(-81.9008 72.7561 0)
(-86.1443 67.6783 0)
(-90.0735 62.3536 -1.42108e-14)
(-93.674 56.8013 -1.42108e-14)
(-96.9326 51.0418 -1.42108e-14)
(-99.8376 45.096 -2.13163e-14)
(-102.378 38.9857 -2.13163e-14)
(-104.545 32.7332 -2.13163e-14)
(-106.331 26.3611 -2.84217e-14)
(-107.729 19.8929 -2.84217e-14)
(-108.733 13.3521 -2.84217e-14)
(-109.341 6.76262 -2.84217e-14)
(-109.55 0.148437 -3.55271e-14)
(-109.359 -6.46629 -3.55271e-14)
(-108.769 -13.0574 -3.55271e-14)
(-107.782 -19.6009 -3.55271e-14)
(-106.402 -26.0729 -3.55271e-14)
(-104.634 -32.4497 -4.26326e-14)
(-102.484 -38.7081 -4.26326e-14)
(-99.9595 -44.8253 -4.26326e-14)
(-97.0706 -50.7789 -4.26326e-14)
(-93.8275 -56.5473 -4.26326e-14)
(-90.2421 -62.1093 -4.26326e-14)
(-86.3274 -67.4446 -4.26326e-14)
(-82.0977 -72.5339 -4.26326e-14)
(-77.5684 -77.3585 -4.26326e-14)
(-72.7561 -81.9008 -4.26326e-14)
(-67.6783 -86.1443 -4.26326e-14)
(-62.3536 -90.0735 -4.26326e-14)
(-56.8013 -93.674 -4.26326e-14)
(-51.0418 -96.9326 -3.55271e-14)
(-45.096 -99.8376 -3.55271e-14)
(-38.9857 -102.378 -3.55271e-14)
(-32.7332 -104.545 -3.55271e-14)
(-26.3611 -106.331 -3.55271e-14)
(-19.8929 -107.729 -2.84217e-14)
(-13.3521 -108.733 -2.84217e-14)
(-6.76262 -109.341 -2.84217e-14)
(-0.148437 -109.55 -2.84217e-14)
(6.46629 -109.359 -2.13163e-14)
(13.0574 -108.769 -2.13163e-14)
(19.6009 -107.782 -2.13163e-14)
(26.0729 -106.402 -1.42108e-14)
(32.4497 -104.634 -1.42108e-14)
(38.7081 -102.484 -1.42108e-14)
(44.8253 -99.9595 0)
(50.7789 -97.0706 0)
(56.5473 -93.8275 0)
(62.1093 -90.2421 7.10543e-15)
(67.4446 -86.3274 7.10543e-15)
(72.5339 -82.0977 7.10543e-15)
(77.3585 -77.5684 1.42108e-14)
(81.9008 -72.7561 1.42108e-14)
(86.1443 -67.6783 1.42108e-14)
(90.0735 -62.3536 2.84217e-14)
(93.674 -56.8013 2.84217e-14)
(96.9326 -51.0418 2.84217e-14)
(99.8376 -45.096 3.55271e-14)
(102.378 -38.9857 3.55271e-14)
(104.545 -32.7332 3.55271e-14)
(106.331 -26.3611 4.26326e-14)
(107.729 -19.8929 4.26326e-14)
(108.733 -13.3521 4.26326e-14)
(109.341 -6.76262 4.26326e-14)
(109.55 -0.148437 4.9738e-14)
(109.359 6.46629 4.9738e-14)
(108.769 13.0574 4.9738e-14)
(107.782 19.6009 4.9738e-14)
(106.402 26.0729 4.9738e-14)
(104.634 32.4497 5.68434e-14)
(102.484 38.7081 5.68434e-14)
(99.9595 44.8253 5.68434e-14)
(97.0706 50.7789 5.68434e-14)
(93.8275 56.5473 5.68434e-14)
)

// edges

205
(
(0 1)
(2 0)
(3 2)
(4 3)
(5 4)
(6 5)
(7 6)
(8 7)
(9 8)
(10 9)
(11 10)
(12 11)
(13 12)
(14 13)
(15 14)
(16 15)
(17 16)
(18 17)
(19 18)
(20 19)
(21 20)
(22 21)
(23 22)
(24 23)
(25 24)
(26 25)
(27 26)
(28 27)
(29 28)
(30 29)
(31 30)
(32 31)
(33 32)
(34 33)
(35 34)
(36 35)
(37 36)
(38 37)
(39 38)
(40 39)
(41 40)
(42 41)
(43 42)
(44 43)
(45 44)
(46 45)
(47 46)
(48 47)
(49 48)
(50 49)
(51 50)
(52 51)
(53 52)
(54 53)
(55 54)
(56 55)
(57 56)
(58 57)
(59 58)
(60 59)
(61 60)
(62 61)
(63 62)
(64 63)
(65 64)
(66 65)
(67 66)
(68 67)
(69 68)
(70 69)
(71 70)
(72 71)
(73 72)
(74 73)
(75 74)
(76 75)
(77 76)
(78 77)
(79 78)
(80 79)
(81 80)
(82 81)
(83 82)
(84 83)
(85 84)
(86 85)
(87 86)
(88 87)
(89 88)
(90 89)
(91 90)
(92 91)
(93 92)
(94 93)
(95 94)
(96 95)
(97 96)
(98 97)
(99 98)
(100 99)
(1 100)
(101 102)
(103 101)
(104 103)
(105 104)
(106 105)
(107 106)
(108 107)
(109 108)
(110 109)
(111 110)
(112 111)
(113 112)
(114 113)
(115 114)
(116 115)
(117 116)
(118 117)
(119 118)
(120 119)
(121 120)
(122 121)
(123 122)
(124 123)
(125 124)
(126 125)
(127 126)
(128 127)
(129 128)
(130 129)
(131 130)
(132 131)
(133 132)
(134 133)
(135 134)
(136 135)
(137 136)
(138 137)
(139 138)
(140 139)
(141 140)
(142 141)
(143 142)
(144 143)
(145 144)
(146 145)
(147 146)
(148 147)
(149 148)
(150 149)
(151 150)
(152 151)
(153 152)
(154 153)
(155 154)
(156 155)
(157 156)
(158 157)
(159 158)
(160 159)
(161 160)
(162 161)
(163 162)
(164 163)
(165 164)
(166 165)
(167 166)
(168 167)
(169 168)
(170 169)
(171 170)
(172 171)
(173 172)
(174 173)
(175 174)
(176 175)
(177 176)
(178 177)
(179 178)
(180 179)
(181 180)
(182 181)
(183 182)
(184 183)
(185 184)
(186 185)
(187 186)
(188 187)
(189 188)
(190 189)
(191 190)
(192 191)
(193 192)
(194 193)
(195 194)
(196 195)
(197 196)
(198 197)
(199 198)
(200 199)
(201 200)
(202 201)
(203 202)
(204 203)
(102 204)
)

// concaveStart mixedStart nonFeatureStart
0 0 0
// internalStart flatStart openStart multipleStart
205 205 205 205
// normals

410
(
(-0.768492 -0.63986 0)
(0 -0 1)
(-0.806783 -0.590848 0)
(0 -0 1)
(-0.841956 -0.539547 0)
(0 -0 1)
(-0.873871 -0.486158 0)
(-4.3157e-16 -1.50252e-15 1)
(-0.902404 -0.43089 0)
(-1.06534e-15 -5.08688e-16 1)
(-0.927448 -0.373952 0)
(-1.09407e-15 -4.41136e-16 1)
(-0.948901 -0.315573 0)
(-1.11862e-15 -3.72014e-16 1)
(-0.966687 -0.255962 0)
(0 -0 1)
(-0.980728 -0.19538 0)
(0 -0 1)
(-0.990978 -0.134022 0)
(0 -0 1)
(-0.997393 -0.0721648 0)
(0 -0 1)
(-0.99995 -0.0100141 0)
(-8.04115e-16 -1.1113e-15 1)
(-0.998638 0.0521827 0)
(0 0 1)
(-0.993462 0.114164 0)
(0 0 1)
(-0.984445 0.175693 0)
(0 0 1)
(-0.971615 0.236569 0)
(-9.1289e-16 -9.13149e-16 1)
(-0.955029 0.296512 0)
(0 0 1)
(-0.934747 0.355313 0)
(0 0 1)
(-0.91085 0.412739 0)
(-9.68433e-16 -7.72336e-16 1)
(-0.883429 0.468566 0)
(0 0 1)
(-0.852589 0.522583 0)
(0 0 1)
(-0.81845 0.574577 0)
(-2.0141e-15 -1.28185e-15 1)
(-0.781146 0.624349 0)
(-0 0 1)
(-0.74082 0.671704 0)
(-0 0 1)
(-0.697627 0.716461 0)
(-1.03366e-15 -5.19791e-16 1)
(-0.651736 0.758446 0)
(-0 0 1)
(-0.603321 0.797498 0)
(-0 0 1)
(-0.552576 0.833462 0)
(-1.05285e-15 -4.0842e-16 1)
(-0.49969 0.866204 0)
(-0 0 1)
(-0.444871 0.895595 0)
(-0 0 1)
(-0.388334 0.921519 0)
(-2.13716e-15 -6.10166e-16 1)
(-0.33029 0.943879 0)
(-0 0 1)
(-0.270977 0.962586 0)
(-0 0 1)
(-0.210596 0.977573 0)
(-1.0839e-15 -2.07039e-16 1)
(-0.149423 0.988773 0)
(-0 0 1)
(-0.0876598 0.99615 0)
(-0 0 1)
(-0.0255566 0.999673 0)
(3.02126e-17 -1.1818e-15 1)
(0.0366415 0.999328 0)
(-1.1056e-15 -4.54295e-17 1)
(0.0986998 0.995117 0)
(0 0 1)
(0.160368 0.987057 0)
(0 0 1)
(0.221418 0.975179 0)
(-2.6096e-16 -1.14933e-15 1)
(0.281627 0.959524 0)
(-1.12316e-15 9.0535e-17 1)
(0.340732 0.940161 0)
(0 0 1)
(0.398523 0.917158 0)
(0 0 1)
(0.454771 0.890608 0)
(0 0 1)
(0.509261 0.860612 0)
(-5.98722e-16 -1.01179e-15 1)
(0.561779 0.827288 0)
(-6.60252e-16 -9.72302e-16 1)
(0.612125 0.790761 0)
(-7.19234e-16 -9.29129e-16 1)
(0.660102 0.751176 0)
(-1.14541e-15 3.67802e-16 1)
(0.705525 0.708685 0)
(0 0 1)
(0.74822 0.663451 0)
(0 0 1)
(0.788018 0.615653 0)
(0 0 1)
(0.824769 0.565469 0)
(0 0 1)
(0.858328 0.513101 0)
(0 0 1)
(0.888568 0.458746 0)
(7.97467e-17 -1.20037e-15 1)
(0.915368 0.402617 0)
(-1.07554e-15 -4.73068e-16 1)
(0.938628 0.34493 0)
(-1.10316e-15 -4.05391e-16 1)
(0.958259 0.2859 0)
(-1.1266e-15 -3.36124e-16 1)
(0.974175 0.225795 0)
(0 0 1)
(0.986331 0.164779 0)
(0 0 1)
(0.994667 0.103139 0)
(0 0 1)
(0.999155 0.0410978 0)
(-1.839e-16 -1.11169e-15 1)
(0.999778 -0.0210849 0)
(-1.17833e-15 2.48505e-17 1)
(0.996531 -0.0832189 0)
(0 0 1)
(0.989432 -0.144998 0)
(0 0 1)
(0.978503 -0.206233 0)
(-3.11576e-16 -1.06176e-15 1)
(0.963789 -0.266667 0)
(-1.13937e-15 3.15248e-16 1)
(0.945346 -0.326068 0)
(0 0 1)
(0.923245 -0.384212 0)
(0 0 1)
(0.897573 -0.440866 0)
(-4.63134e-16 -1.00161e-15 1)
(0.868428 -0.495816 0)
(0 0 1)
(0.835924 -0.548845 0)
(0 0 1)
(0.800185 -0.599753 0)
(-1.10912e-15 -1.92604e-15 1)
(0.761352 -0.648339 0)
(0 0 1)
(0.719571 -0.694419 0)
(0 0 1)
(0.675007 -0.737811 0)
(-6.5102e-16 -9.22752e-16 1)
(0.627833 -0.778348 0)
(0 0 1)
(0.578228 -0.815875 0)
(0 0 1)
(0.526386 -0.850246 0)
(-7.54435e-16 -8.77186e-16 1)
(0.47251 -0.881325 0)
(0 0 1)
(0.416804 -0.908996 0)
(0 0 1)
(0.359486 -0.933151 0)
(-1.73107e-15 -1.64411e-15 1)
(0.300775 -0.953695 0)
(0 0 1)
(0.240899 -0.97055 0)
(0 0 1)
(0.180102 -0.983648 0)
(-9.83699e-16 -7.52798e-16 1)
(0.118604 -0.992942 0)
(0 0 1)
(0.056639 -0.998395 0)
(0 0 1)
(-0.00554249 -0.999985 0)
(-1.10689e-15 -6.64844e-16 1)
(-0.0677085 -0.997705 0)
(0 0 1)
(-0.129596 -0.991567 0)
(0 0 1)
(-0.190987 -0.981593 0)
(0 0 1)
(-0.251646 -0.967819 0)
(-1.27283e-15 -5.11342e-16 1)
(-0.311329 -0.950302 0)
(0 0 1)
(-0.369806 -0.929109 0)
(0 0 1)
(-0.426854 -0.90432 0)
(0 0 1)
(-0.482248 -0.876035 0)
(0 0 1)
(-0.53578 -0.844357 0)
(-6.31605e-16 -9.9537e-16 1)
(-0.587236 -0.809416 0)
(-6.9274e-16 -9.54838e-16 1)
(-0.63642 -0.771343 0)
(-7.51326e-16 -9.10609e-16 1)
(-0.683146 -0.730282 0)
(-1.5623e-15 -5.5218e-17 1)
(-0.727223 -0.686401 0)
(0 -0 1)
(0.806253 0.59157 0)
(0 0 1)
(0.769065 0.639171 0)
(0 0 1)
(0.72907 0.684439 0)
(0 0 1)
(0.686413 0.727212 0)
(0 -0 1)
(0.641253 0.767329 0)
(-7.61691e-16 -9.11446e-16 1)
(0.593753 0.804648 0)
(-7.05793e-16 -9.56483e-16 1)
(0.544086 0.83903 0)
(-6.47199e-16 -9.9804e-16 1)
(0.492435 0.870349 0)
(-1.40588e-15 -3.04354e-16 1)
(0.438986 0.898494 0)
(0 -0 1)
(0.383935 0.92336 0)
(0 -0 1)
(0.327481 0.944858 0)
(0 -0 1)
(0.269845 0.962904 0)
(0 -0 1)
(0.211198 0.977443 0)
(-1.21677e-15 -5.47299e-16 1)
(0.15181 0.98841 0)
(0 -0 1)
(0.091848 0.995773 0)
(0 -0 1)
(0.0315518 0.999502 0)
(0 -0 1)
(-0.0288471 0.999584 0)
(-1.05429e-15 -6.89212e-16 1)
(-0.0891582 0.996017 0)
(0 -0 1)
(-0.149119 0.988819 0)
(0 -0 1)
(-0.208555 0.978011 0)
(-9.33765e-16 -7.69611e-16 1)
(-0.267231 0.963632 0)
(0 -0 1)
(-0.324913 0.945744 0)
(0 -0 1)
(-0.381435 0.924396 0)
(-1.63637e-15 -1.66428e-15 1)
(-0.436549 0.89968 0)
(0 -0 1)
(-0.490074 0.871681 0)
(0 -0 1)
(-0.541811 0.8405 0)
(-7.09447e-16 -8.81204e-16 1)
(-0.59157 0.806253 0)
(0 -0 1)
(-0.639171 0.769065 0)
(0 -0 1)
(-0.684439 0.72907 0)
(-6.07987e-16 -9.21149e-16 1)
(-0.727212 0.686413 0)
(0 0 1)
(-0.767329 0.641253 0)
(0 0 1)
(-0.804648 0.593753 0)
(-1.02585e-15 -1.91185e-15 1)
(-0.83903 0.544086 0)
(0 0 1)
(-0.870349 0.492435 0)
(0 0 1)
(-0.898494 0.438986 0)
(-4.22253e-16 -9.88735e-16 1)
(-0.92336 0.383935 0)
(0 0 1)
(-0.944858 0.327481 0)
(0 0 1)
(-0.962904 0.269845 0)
(-3.6376e-16 -1.01316e-15 1)
(-0.977443 0.211198 0)
(-1.1604e-15 2.50731e-16 1)
(-0.98841 0.15181 0)
(0 0 1)
(-0.995773 0.091848 0)
(0 0 1)
(-0.999502 0.0315518 0)
(-2.44487e-16 -1.06655e-15 1)
(-0.999584 -0.0288471 -0)
(-1.19001e-15 -3.43426e-17 1)
(-0.996017 -0.0891582 -0)
(0 0 1)
(-0.988819 -0.149119 -0)
(0 0 1)
(-0.978011 -0.208555 -0)
(0 0 1)
(-0.963632 -0.267231 -0)
(-7.79808e-17 -1.13588e-15 1)
(-0.945744 -0.324913 -0)
(-1.12844e-15 -3.87679e-16 1)
(-0.924396 -0.381435 -0)
(-1.10327e-15 -4.55244e-16 1)
(-0.89968 -0.436549 -0)
(-1.07402e-15 -5.21141e-16 1)
(-0.871681 -0.490074 -0)
(0 0 1)
(-0.8405 -0.541811 -0)
(0 0 1)
(-0.806253 -0.59157 -0)
(0 0 1)
(-0.769065 -0.639171 -0)
(0 0 1)
(-0.72907 -0.684439 -0)
(0 0 1)
(-0.686413 -0.727212 -0)
(0 0 1)
(-0.641253 -0.767329 -0)
(-7.65512e-16 -9.16018e-16 1)
(-0.593753 -0.804648 -0)
(-7.08648e-16 -9.60352e-16 1)
(-0.544086 -0.83903 -0)
(-6.49188e-16 -1.00111e-15 1)
(-0.492435 -0.870349 -0)
(-1.121e-15 1.99157e-16 1)
(-0.438986 -0.898494 -0)
(0 0 1)
(-0.383935 -0.92336 -0)
(0 0 1)
(-0.327481 -0.944858 -0)
(0 0 1)
(-0.269845 -0.962904 -0)
(-3.21251e-16 -1.14634e-15 1)
(-0.211198 -0.977443 -0)
(-1.09402e-15 2.08252e-17 1)
(-0.15181 -0.98841 -0)
(0 0 1)
(-0.091848 -0.995773 -0)
(0 0 1)
(-0.0315518 -0.999502 -0)
(-3.7458e-17 -1.1866e-15 1)
(0.0288471 -0.999584 0)
(-1.07107e-15 -1.07821e-16 1)
(0.0891582 -0.996017 0)
(0 0 1)
(0.149119 -0.988819 0)
(0 0 1)
(0.208555 -0.978011 0)
(-1.06152e-15 -1.70489e-16 1)
(0.267231 -0.963632 0)
(0 0 1)
(0.324913 -0.945744 0)
(0 0 1)
(0.381435 -0.924396 0)
(-2.10325e-15 -5.32807e-16 1)
(0.436549 -0.89968 0)
(0 0 1)
(0.490074 -0.871681 0)
(0 0 1)
(0.541811 -0.8405 0)
(-1.04088e-15 -3.67056e-16 1)
(0.59157 -0.806253 0)
(0 0 1)
(0.639171 -0.769065 0)
(0 0 1)
(0.684439 -0.72907 0)
(-1.02667e-15 -4.75164e-16 1)
(0.727212 -0.686413 0)
(0 0 1)
(0.767329 -0.641253 0)
(0 0 1)
(0.804648 -0.593753 0)
(-2.01076e-15 -1.18509e-15 1)
(0.83903 -0.544086 0)
(-0 0 1)
(0.870349 -0.492435 0)
(-0 0 1)
(0.898494 -0.438986 0)
(-9.72666e-16 -7.19814e-16 1)
(0.92336 -0.383935 0)
(-0 0 1)
(0.944858 -0.327481 0)
(-0 0 1)
(0.962904 -0.269845 0)
(-9.23808e-16 -8.56209e-16 1)
(0.977443 -0.211198 0)
(-0 0 1)
(0.98841 -0.15181 0)
(-0 0 1)
(0.995773 -0.091848 0)
(-0 0 1)
(0.999502 -0.0315518 0)
(-8.25439e-16 -1.04821e-15 1)
(0.999584 0.0288471 0)
(-0 0 1)
(0.996017 0.0891582 0)
(-0 0 1)
(0.988819 0.149119 0)
(-0 0 1)
(0.978011 0.208555 0)
(-0 0 1)
(0.963632 0.267231 0)
(-6.35462e-16 -1.29048e-15 1)
(0.945744 0.324913 0)
(-1.12498e-15 -3.86488e-16 1)
(0.924396 0.381435 0)
(-1.09883e-15 -4.53411e-16 1)
(0.89968 0.436549 0)
(-1.06866e-15 -5.1854e-16 1)
(0.871681 0.490074 0)
(-0 0 1)
(0.8405 0.541811 0)
(-0 0 1)
)

// normal volume types

410
(
0
0
0
0
0
0
0
0
0
0
0
0
0
0
0
0
0
0
0
0
0
0
0
0
0
0
0
0
0
0
0
0
0
0
0
0
0
0
0
0
0
0
0
0
0
0
0
0
0
0
0
0
0
0
0
0
0
0
0
0
0
0
0
0
0
0
0
0
0
0
0
0
0
0
0
0
0
0
0
0
0
0
0
0
0
0
0
0
0
0
0
0
0
0
0
0
0
0
0
0
0
0
0
0
0
0
0
0
0
0
0
0
0
0
0
0
0
0
0
0
0
0
0
0
0
0
0
0
0
0
0
0
0
0
0
0
0
0
0
0
0
0
0
0
0
0
0
0
0
0
0
0
0
0
0
0
0
0
0
0
0
0
0
0
0
0
0
0
0
0
0
0
0
0
0
0
0
0
0
0
0
0
0
0
0
0
0
0
0
0
0
0
0
0
0
0
0
0
0
0
0
0
0
0
0
0
0
0
0
0
0
0
0
0
0
0
0
0
0
0
0
0
0
0
0
0
0
0
0
0
0
0
0
0
0
0
0
0
0
0
0
0
0
0
0
0
0
0
0
0
0
0
0
0
0
0
0
0
0
0
0
0
0
0
0
0
0
0
0
0
0
0
0
0
0
0
0
0
0
0
0
0
0
0
0
0
0
0
0
0
0
0
0
0
0
0
0
0
0
0
0
0
0
0
0
0
0
0
0
0
0
0
0
0
0
0
0
0
0
0
0
0
0
0
0
0
0
0
0
0
0
0
0
0
0
0
0
0
0
0
0
0
0
0
0
0
0
0
0
0
0
0
0
0
0
0
0
0
0
0
0
0
0
0
0
0
0
0
0
0
0
0
0
0
0
0
0
0
0
0
0
0
0
0
0
0
0
0
0
0
0
0
0
0
0
0
0
0
0
0
0
0
0
0
0
0
0
0
0
0
)

// normalDirections

205
(
2(1 -1)
2(1 -1)
2(1 -1)
2(1 -1)
2(1 -1)
2(1 -1)
2(1 -1)
2(1 -1)
2(1 -1)
2(1 -1)
2(1 -1)
2(1 -1)
2(1 -1)
2(1 -1)
2(1 -1)
2(1 -1)
2(1 -1)
2(1 -1)
2(1 -1)
2(1 -1)
2(1 -1)
2(1 -1)
2(1 -1)
2(1 -1)
2(1 -1)
2(1 -1)
2(1 -1)
2(1 -1)
2(1 -1)
2(1 -1)
2(1 -1)
2(1 -1)
2(1 -1)
2(1 -1)
2(1 -1)
2(1 -1)
2(1 -1)
2(1 -1)
2(1 -1)
2(1 -1)
2(1 -1)
2(1 -1)
2(1 -1)
2(1 -1)
2(1 -1)
2(1 -1)
2(1 -1)
2(1 -1)
2(1 -1)
2(1 -1)
2(1 -1)
2(1 -1)
2(1 -1)
2(1 -1)
2(1 -1)
2(1 -1)
2(1 -1)
2(1 -1)
2(1 -1)
2(1 -1)
2(1 -1)
2(1 -1)
2(1 -1)
2(1 -1)
2(1 -1)
2(1 -1)
2(1 -1)
2(1 -1)
2(1 -1)
2(1 -1)
2(1 -1)
2(1 -1)
2(1 -1)
2(1 -1)
2(1 -1)
2(1 -1)
2(1 -1)
2(1 -1)
2(1 -1)
2(1 -1)
2(1 -1)
2(1 -1)
2(1 -1)
2(1 -1)
2(1 -1)
2(1 -1)
2(1 -1)
2(1 -1)
2(1 -1)
2(1 -1)
2(1 -1)
2(1 -1)
2(1 -1)
2(1 -1)
2(1 -1)
2(1 -1)
2(1 -1)
2(1 -1)
2(1 -1)
2(1 -1)
2(1 -1)
2(1 -1)
2(1 -1)
2(1 -1)
2(1 -1)
2(1 -1)
2(1 -1)
2(1 -1)
2(1 -1)
2(1 -1)
2(1 -1)
2(1 -1)
2(1 -1)
2(1 -1)
2(1 -1)
2(1 -1)
2(1 -1)
2(1 -1)
2(1 -1)
2(1 -1)
2(1 -1)
2(1 -1)
2(1 -1)
2(1 -1)
2(1 -1)
2(1 -1)
2(1 -1)
2(1 -1)
2(1 -1)
2(1 -1)
2(1 -1)
2(1 -1)
2(1 -1)
2(1 -1)
2(1 -1)
2(1 -1)
2(1 -1)
2(1 -1)
2(1 -1)
2(1 -1)
2(1 -1)
2(1 -1)
2(1 -1)
2(1 -1)
2(1 -1)
2(1 -1)
2(1 -1)
2(1 -1)
2(1 -1)
2(1 -1)
2(1 -1)
2(1 -1)
2(1 -1)
2(1 -1)
2(1 -1)
2(1 -1)
2(1 -1)
2(1 -1)
2(1 -1)
2(1 -1)
2(1 -1)
2(1 -1)
2(1 -1)
2(1 -1)
2(1 -1)
2(1 -1)
2(1 -1)
2(1 -1)
2(1 -1)
2(1 -1)
2(1 -1)
2(1 -1)
2(1 -1)
2(1 -1)
2(1 -1)
2(1 -1)
2(1 -1)
2(1 -1)
2(1 -1)
2(1 -1)
2(1 -1)
2(1 -1)
2(1 -1)
2(1 -1)
2(1 -1)
2(1 -1)
2(1 -1)
2(1 -1)
2(1 -1)
2(1 -1)
2(1 -1)
2(1 -1)
2(1 -1)
2(1 -1)
2(1 -1)
2(1 -1)
2(1 -1)
2(1 -1)
2(1 -1)
2(1 -1)
2(1 -1)
2(1 -1)
2(1 -1)
2(1 -1)
2(1 -1)
)

// edgeNormals

205
(
2(0 1)
2(2 3)
2(4 5)
2(6 7)
2(8 9)
2(10 11)
2(12 13)
2(14 15)
2(16 17)
2(18 19)
2(20 21)
2(22 23)
2(24 25)
2(26 27)
2(28 29)
2(30 31)
2(32 33)
2(34 35)
2(36 37)
2(38 39)
2(40 41)
2(42 43)
2(44 45)
2(46 47)
2(48 49)
2(50 51)
2(52 53)
2(54 55)
2(56 57)
2(58 59)
2(60 61)
2(62 63)
2(64 65)
2(66 67)
2(68 69)
2(70 71)
2(72 73)
2(74 75)
2(76 77)
2(78 79)
2(80 81)
2(82 83)
2(84 85)
2(86 87)
2(88 89)
2(90 91)
2(92 93)
2(94 95)
2(96 97)
2(98 99)
2(100 101)
2(102 103)
2(104 105)
2(106 107)
2(108 109)
2(110 111)
2(112 113)
2(114 115)
2(116 117)
2(118 119)
2(120 121)
2(122 123)
2(124 125)
2(126 127)
2(128 129)
2(130 131)
2(132 133)
2(134 135)
2(136 137)
2(138 139)
2(140 141)
2(142 143)
2(144 145)
2(146 147)
2(148 149)
2(150 151)
2(152 153)
2(154 155)
2(156 157)
2(158 159)
2(160 161)
2(162 163)
2(164 165)
2(166 167)
2(168 169)
2(170 171)
2(172 173)
2(174 175)
2(176 177)
2(178 179)
2(180 181)
2(182 183)
2(184 185)
2(186 187)
2(188 189)
2(190 191)
2(192 193)
2(194 195)
2(196 197)
2(198 199)
2(200 201)
2(202 203)
2(204 205)
2(206 207)
2(208 209)
2(210 211)
2(212 213)
2(214 215)
2(216 217)
2(218 219)
2(220 221)
2(222 223)
2(224 225)
2(226 227)
2(228 229)
2(230 231)
2(232 233)
2(234 235)
2(236 237)
2(238 239)
2(240 241)
2(242 243)
2(244 245)
2(246 247)
2(248 249)
2(250 251)
2(252 253)
2(254 255)
2(256 257)
2(258 259)
2(260 261)
2(262 263)
2(264 265)
2(266 267)
2(268 269)
2(270 271)
2(272 273)
2(274 275)
2(276 277)
2(278 279)
2(280 281)
2(282 283)
2(284 285)
2(286 287)
2(288 289)
2(290 291)
2(292 293)
2(294 295)
2(296 297)
2(298 299)
2(300 301)
2(302 303)
2(304 305)
2(306 307)
2(308 309)
2(310 311)
2(312 313)
2(314 315)
2(316 317)
2(318 319)
2(320 321)
2(322 323)
2(324 325)
2(326 327)
2(328 329)
2(330 331)
2(332 333)
2(334 335)
2(336 337)
2(338 339)
2(340 341)
2(342 343)
2(344 345)
2(346 347)
2(348 349)
2(350 351)
2(352 353)
2(354 355)
2(356 357)
2(358 359)
2(360 361)
2(362 363)
2(364 365)
2(366 367)
2(368 369)
2(370 371)
2(372 373)
2(374 375)
2(376 377)
2(378 379)
2(380 381)
2(382 383)
2(384 385)
2(386 387)
2(388 389)
2(390 391)
2(392 393)
2(394 395)
2(396 397)
2(398 399)
2(400 401)
2(402 403)
2(404 405)
2(406 407)
2(408 409)
)

// featurePointNormals
0()
// featurePointEdges
0()
// regionEdges
0()


// ************************************************************************* //
