/*--------------------------------*- C++ -*----------------------------------*\
  =========                 |
  \\      /  F ield         | OpenFOAM: The Open Source CFD Toolbox
   \\    /   O peration     | Website:  https://openfoam.org
    \\  /    A nd           | Version:  7
     \\/     M anipulation  |
\*---------------------------------------------------------------------------*/
FoamFile
{
    version     2.0;
    format      ascii;
    class       extendedFeatureEdgeMesh;
    location    "constant/extendedFeatureEdgeMesh";
    object      DO.extendedFeatureEdgeMesh;
}
// * * * * * * * * * * * * * * * * * * * * * * * * * * * * * * * * * * * * * //

// points

130
(
(-0.0269164 -0.0113868 0.000306731)
(-0.0268884 -0.0119659 0.000306731)
(-0.0268884 -0.0108077 0.000306731)
(-0.0268046 -0.0102341 0.000306731)
(-0.0266658 -0.00967114 0.000306731)
(-0.0264734 -0.00912425 0.000306731)
(-0.0262291 -0.00859848 0.000306731)
(-0.0259352 -0.00809874 0.000306731)
(-0.0255944 -0.00762971 0.000306731)
(-0.02521 -0.00719575 0.000306731)
(-0.0247854 -0.00680092 0.000306731)
(-0.0243248 -0.00644891 0.000306731)
(-0.0238323 -0.00614301 0.000306731)
(-0.0233126 -0.00588606 0.000306731)
(-0.0227705 -0.00568048 0.000306731)
(-0.0222111 -0.00552817 0.000306731)
(-0.0216396 -0.00543056 0.000306731)
(-0.0210613 -0.00538857 0.000306731)
(-0.0204818 -0.00540258 0.000306731)
(-0.0199062 -0.00547246 0.000306731)
(-0.0193401 -0.00559756 0.000306731)
(-0.0187887 -0.00577672 0.000306731)
(-0.0182572 -0.00600825 0.000306731)
(-0.0177505 -0.00629001 0.000306731)
(-0.0172734 -0.00661935 0.000306731)
(-0.0168303 -0.0069932 0.000306731)
(-0.0164253 -0.00740808 0.000306731)
(-0.0160623 -0.0078601 0.000306731)
(-0.0157446 -0.00834506 0.000306731)
(-0.0154751 -0.00885841 0.000306731)
(-0.0152565 -0.00939537 0.000306731)
(-0.0150907 -0.00995092 0.000306731)
(-0.0149793 -0.0105199 0.000306731)
(-0.0149234 -0.0110969 0.000306731)
(-0.0149234 -0.0116767 0.000306731)
(-0.0149793 -0.0122538 0.000306731)
(-0.0150907 -0.0128227 0.000306731)
(-0.0152565 -0.0133783 0.000306731)
(-0.0154751 -0.0139152 0.000306731)
(-0.0157446 -0.0144286 0.000306731)
(-0.0160623 -0.0149135 0.000306731)
(-0.0164253 -0.0153656 0.000306731)
(-0.0168303 -0.0157804 0.000306731)
(-0.0172734 -0.0161543 0.000306731)
(-0.0177505 -0.0164836 0.000306731)
(-0.0182572 -0.0167654 0.000306731)
(-0.0187887 -0.0169969 0.000306731)
(-0.0193401 -0.0171761 0.000306731)
(-0.0199062 -0.0173012 0.000306731)
(-0.0204818 -0.0173711 0.000306731)
(-0.0210613 -0.0173851 0.000306731)
(-0.0216396 -0.0173431 0.000306731)
(-0.0222111 -0.0172455 0.000306731)
(-0.0227705 -0.0170932 0.000306731)
(-0.0233126 -0.0168876 0.000306731)
(-0.0238323 -0.0166306 0.000306731)
(-0.0243248 -0.0163247 0.000306731)
(-0.0247854 -0.0159727 0.000306731)
(-0.02521 -0.0155779 0.000306731)
(-0.0255944 -0.0151439 0.000306731)
(-0.0259352 -0.0146749 0.000306731)
(-0.0262291 -0.0141752 0.000306731)
(-0.0264734 -0.0136494 0.000306731)
(-0.0266658 -0.0131025 0.000306731)
(-0.0268046 -0.0125396 0.000306731)
(-0.0269164 -0.0113868 0.140307)
(-0.0268884 -0.0108077 0.140307)
(-0.0268884 -0.0119659 0.140307)
(-0.0268046 -0.0125396 0.140307)
(-0.0266658 -0.0131025 0.140307)
(-0.0264734 -0.0136494 0.140307)
(-0.0262291 -0.0141752 0.140307)
(-0.0259352 -0.0146749 0.140307)
(-0.0255944 -0.0151439 0.140307)
(-0.02521 -0.0155779 0.140307)
(-0.0247854 -0.0159727 0.140307)
(-0.0243248 -0.0163247 0.140307)
(-0.0238323 -0.0166306 0.140307)
(-0.0233126 -0.0168876 0.140307)
(-0.0227705 -0.0170932 0.140307)
(-0.0222111 -0.0172455 0.140307)
(-0.0216396 -0.0173431 0.140307)
(-0.0210613 -0.0173851 0.140307)
(-0.0204818 -0.0173711 0.140307)
(-0.0199062 -0.0173012 0.140307)
(-0.0193401 -0.0171761 0.140307)
(-0.0187887 -0.0169969 0.140307)
(-0.0182572 -0.0167654 0.140307)
(-0.0177505 -0.0164836 0.140307)
(-0.0172734 -0.0161543 0.140307)
(-0.0168303 -0.0157804 0.140307)
(-0.0164253 -0.0153656 0.140307)
(-0.0160623 -0.0149135 0.140307)
(-0.0157446 -0.0144286 0.140307)
(-0.0154751 -0.0139152 0.140307)
(-0.0152565 -0.0133783 0.140307)
(-0.0150907 -0.0128227 0.140307)
(-0.0149793 -0.0122538 0.140307)
(-0.0149234 -0.0116767 0.140307)
(-0.0149234 -0.0110969 0.140307)
(-0.0149793 -0.0105199 0.140307)
(-0.0150907 -0.00995092 0.140307)
(-0.0152565 -0.00939537 0.140307)
(-0.0154751 -0.00885841 0.140307)
(-0.0157446 -0.00834506 0.140307)
(-0.0160623 -0.0078601 0.140307)
(-0.0164253 -0.00740808 0.140307)
(-0.0168303 -0.0069932 0.140307)
(-0.0172734 -0.00661935 0.140307)
(-0.0177505 -0.00629001 0.140307)
(-0.0182572 -0.00600825 0.140307)
(-0.0187887 -0.00577672 0.140307)
(-0.0193401 -0.00559756 0.140307)
(-0.0199062 -0.00547246 0.140307)
(-0.0204818 -0.00540258 0.140307)
(-0.0210613 -0.00538857 0.140307)
(-0.0216396 -0.00543056 0.140307)
(-0.0222111 -0.00552817 0.140307)
(-0.0227705 -0.00568048 0.140307)
(-0.0233126 -0.00588606 0.140307)
(-0.0238323 -0.00614301 0.140307)
(-0.0243248 -0.00644891 0.140307)
(-0.0247854 -0.00680092 0.140307)
(-0.02521 -0.00719575 0.140307)
(-0.0255944 -0.00762971 0.140307)
(-0.0259352 -0.00809874 0.140307)
(-0.0262291 -0.00859848 0.140307)
(-0.0264734 -0.00912425 0.140307)
(-0.0266658 -0.00967114 0.140307)
(-0.0268046 -0.0102341 0.140307)
)

// edges

130
(
(0 1)
(2 0)
(3 2)
(4 3)
(5 4)
(6 5)
(7 6)
(8 7)
(9 8)
(10 9)
(11 10)
(12 11)
(13 12)
(14 13)
(15 14)
(16 15)
(17 16)
(18 17)
(19 18)
(20 19)
(21 20)
(22 21)
(23 22)
(24 23)
(25 24)
(26 25)
(27 26)
(28 27)
(29 28)
(30 29)
(31 30)
(32 31)
(33 32)
(34 33)
(35 34)
(36 35)
(37 36)
(38 37)
(39 38)
(40 39)
(41 40)
(42 41)
(43 42)
(44 43)
(45 44)
(46 45)
(47 46)
(48 47)
(49 48)
(50 49)
(51 50)
(52 51)
(53 52)
(54 53)
(55 54)
(56 55)
(57 56)
(58 57)
(59 58)
(60 59)
(61 60)
(62 61)
(63 62)
(64 63)
(1 64)
(65 66)
(67 65)
(68 67)
(69 68)
(70 69)
(71 70)
(72 71)
(73 72)
(74 73)
(75 74)
(76 75)
(77 76)
(78 77)
(79 78)
(80 79)
(81 80)
(82 81)
(83 82)
(84 83)
(85 84)
(86 85)
(87 86)
(88 87)
(89 88)
(90 89)
(91 90)
(92 91)
(93 92)
(94 93)
(95 94)
(96 95)
(97 96)
(98 97)
(99 98)
(100 99)
(101 100)
(102 101)
(103 102)
(104 103)
(105 104)
(106 105)
(107 106)
(108 107)
(109 108)
(110 109)
(111 110)
(112 111)
(113 112)
(114 113)
(115 114)
(116 115)
(117 116)
(118 117)
(119 118)
(120 119)
(121 120)
(122 121)
(123 122)
(124 123)
(125 124)
(126 125)
(127 126)
(128 127)
(129 128)
(66 129)
)

// concaveStart mixedStart nonFeatureStart
0 0 0
// internalStart flatStart openStart multipleStart
130 130 130 130
// normals

256
(
(-0.998832 -0.0483142 -0.00060117)
(0 0 -1)
(-0.998832 0.0483133 -0.000601149)
(-0.989506 0.14449 -0.00060081)
(0 0 -1)
(-0.970944 0.239307 -0.000600398)
(0 0 -1)
(-0.94331 0.331912 -0.000600203)
(0 0 -1)
(-0.906875 0.421398 -0.000600612)
(0 0 -1)
(-0.861966 0.506966 -0.000600556)
(0 0 -1)
(-0.809021 0.587779 -0.000600397)
(0 0 -1)
(-0.748513 0.66312 -0.000600498)
(0 0 -1)
(-0.681015 0.732269 -0.000600482)
(0 0 -1)
(-0.607158 0.794581 -0.000600649)
(0 0 -1)
(-0.527639 0.849468 -0.000600505)
(0 0 -1)
(-0.443192 0.896426 -0.000600605)
(0 0 -1)
(-0.354602 0.935017 -0.000600617)
(0 0 -1)
(-0.262712 0.964874 -0.000600696)
(0 0 -1)
(-0.168355 0.985726 -0.000600538)
(0 0 -1)
(-0.0724344 0.997373 -0.000600602)
(0 0 -1)
(0.0241634 0.999708 -0.00060055)
(0 0 -1)
(0.120536 0.992709 -0.000600533)
(0 0 -1)
(0.215785 0.976441 -0.000600502)
(0 0 -1)
(0.309015 0.951057 -0.000600508)
(0 0 -1)
(0.399364 0.916792 -0.000600573)
(0 0 -1)
(0.485985 0.873967 -0.000600477)
(0 0 -1)
(0.568069 0.822981 -0.000600786)
(0 0 -1)
(0.644842 0.764315 -0.000600739)
(0 0 -1)
(0.715598 0.698512 -0.000600637)
(0 0 -1)
(0.779672 0.626187 -0.000600361)
(0 0 -1)
(0.836467 0.548017 -0.00060055)
(0 0 -1)
(0.885461 0.464713 -0.000600255)
(0 0 -1)
(0.926172 0.377102 -0.000601004)
(0 0 -1)
(0.958246 0.285946 -0.000600204)
(0 0 -1)
(0.981369 0.192132 -0.000600402)
(0 0 -1)
(0.995332 0.0965046 -0.000600662)
(0 0 -1)
(1 0 -0.000600862)
(0.995332 -0.0965063 -0.00060062)
(0 0 -1)
(0.981369 -0.192131 -0.000600548)
(0 0 -1)
(0.958245 -0.285947 -0.000600261)
(0 0 -1)
(0.926172 -0.377102 -0.000601275)
(0 0 -1)
(0.885464 -0.464707 -0.000600384)
(0 0 -1)
(0.836465 -0.54802 -0.000600331)
(0 0 -1)
(0.77967 -0.62619 -0.000600524)
(0 0 -1)
(0.715601 -0.698509 -0.000600358)
(0 0 -1)
(0.644838 -0.764319 -0.000600632)
(0 0 -1)
(0.568066 -0.822983 -0.000601033)
(0 0 -1)
(0.485994 -0.873962 -0.000600233)
(0 0 -1)
(0.399356 -0.916796 -0.000600665)
(0 0 -1)
(0.309019 -0.951056 -0.000601021)
(0 0 -1)
(0.215781 -0.976442 -0.000600443)
(0 0 -1)
(0.120551 -0.992707 -0.000600533)
(0 0 -1)
(0.0241473 -0.999708 -0.000600151)
(0 0 -1)
(-0.0724256 -0.997374 -0.000601179)
(0 0 -1)
(-0.168361 -0.985725 -0.000600341)
(0 0 -1)
(-0.2627 -0.964877 -0.000600561)
(0 0 -1)
(-0.354608 -0.935015 -0.000600169)
(0 0 -1)
(-0.443199 -0.896423 -0.000600909)
(0 0 -1)
(-0.527634 -0.849472 -0.000600336)
(0 0 -1)
(-0.60716 -0.794579 -0.000600553)
(0 0 -1)
(-0.681018 -0.732266 -0.000600803)
(0 0 -1)
(-0.748507 -0.663126 -0.000600445)
(0 0 -1)
(-0.809024 -0.587776 -0.000600432)
(0 0 -1)
(-0.861963 -0.50697 -0.000600718)
(0 0 -1)
(-0.906875 -0.421399 -0.000600326)
(0 0 -1)
(-0.943311 -0.33191 -0.000600031)
(0 0 -1)
(-0.970943 -0.239309 -0.000600312)
(0 0 -1)
(-0.989506 -0.144488 -0.000600747)
(0 0 -1)
(-0.998832 0.0483133 0.000601152)
(-0 0 1)
(-0.998832 -0.0483142 0.000601174)
(-0.989506 -0.144488 0.000600751)
(0 0 1)
(-0.970943 -0.239309 0.000600316)
(0 0 1)
(-0.943311 -0.33191 0.000600035)
(0 0 1)
(-0.906875 -0.421399 0.00060033)
(0 0 1)
(-0.861963 -0.50697 0.000600722)
(0 0 1)
(-0.809024 -0.587776 0.000600436)
(0 0 1)
(-0.748507 -0.663126 0.000600449)
(0 0 1)
(-0.681018 -0.732266 0.000600807)
(0 0 1)
(-0.60716 -0.794579 0.000600557)
(0 0 1)
(-0.527634 -0.849472 0.000600339)
(0 0 1)
(-0.443199 -0.896423 0.000600913)
(0 0 1)
(-0.354608 -0.935015 0.000600173)
(0 0 1)
(-0.2627 -0.964877 0.000600565)
(0 0 1)
(-0.168361 -0.985725 0.000600345)
(0 0 1)
(-0.0724256 -0.997374 0.000601183)
(0 0 1)
(0.0241473 -0.999708 0.000600154)
(0 0 1)
(0.120551 -0.992707 0.000600537)
(0 0 1)
(0.215781 -0.976442 0.000600447)
(0 0 1)
(0.309019 -0.951056 0.000601024)
(0 0 1)
(0.399356 -0.916796 0.000600668)
(0 0 1)
(0.485994 -0.873962 0.000600237)
(0 0 1)
(0.568066 -0.822983 0.000601037)
(0 0 1)
(0.644838 -0.764319 0.000600636)
(0 0 1)
(0.715601 -0.698509 0.000600362)
(0 0 1)
(0.77967 -0.62619 0.000600527)
(0 0 1)
(0.836465 -0.54802 0.000600335)
(0 0 1)
(0.885464 -0.464707 0.000600388)
(0 0 1)
(0.926172 -0.377102 0.000601279)
(0 0 1)
(0.958245 -0.285947 0.000600265)
(0 0 1)
(0.981369 -0.192131 0.000600552)
(0 0 1)
(0.995332 -0.0965063 0.000600624)
(0 0 1)
(1 -0 0.000600866)
(0.995332 0.0965046 0.000600666)
(0 0 1)
(0.981369 0.192132 0.000600406)
(0 0 1)
(0.958246 0.285946 0.000600208)
(0 0 1)
(0.926172 0.377102 0.000601008)
(0 0 1)
(0.885461 0.464713 0.000600258)
(0 0 1)
(0.836467 0.548017 0.000600554)
(0 0 1)
(0.779672 0.626187 0.000600365)
(0 0 1)
(0.715598 0.698512 0.000600641)
(0 0 1)
(0.644842 0.764315 0.000600743)
(0 0 1)
(0.568069 0.822981 0.00060079)
(0 0 1)
(0.485985 0.873967 0.000600481)
(0 0 1)
(0.399364 0.916792 0.000600577)
(0 0 1)
(0.309015 0.951057 0.000600512)
(0 0 1)
(0.215785 0.976441 0.000600505)
(0 0 1)
(0.120536 0.992709 0.000600537)
(0 0 1)
(0.0241634 0.999708 0.000600553)
(0 0 1)
(-0.0724344 0.997373 0.000600605)
(-0 0 1)
(-0.168355 0.985726 0.000600542)
(-0 0 1)
(-0.262712 0.964874 0.0006007)
(-0 0 1)
(-0.354602 0.935017 0.000600621)
(-0 0 1)
(-0.443192 0.896426 0.000600609)
(-0 0 1)
(-0.527639 0.849468 0.000600509)
(-0 0 1)
(-0.607158 0.794581 0.000600652)
(-0 0 1)
(-0.681015 0.732269 0.000600486)
(-0 0 1)
(-0.748513 0.66312 0.000600502)
(-0 0 1)
(-0.809021 0.587779 0.000600401)
(-0 0 1)
(-0.861966 0.506966 0.00060056)
(-0 0 1)
(-0.906875 0.421398 0.000600616)
(-0 0 1)
(-0.94331 0.331912 0.000600207)
(-0 0 1)
(-0.970944 0.239307 0.000600402)
(-0 0 1)
(-0.989506 0.14449 0.000600814)
(-0 0 1)
)

// normal volume types

256
(
0
0
0
0
0
0
0
0
0
0
0
0
0
0
0
0
0
0
0
0
0
0
0
0
0
0
0
0
0
0
0
0
0
0
0
0
0
0
0
0
0
0
0
0
0
0
0
0
0
0
0
0
0
0
0
0
0
0
0
0
0
0
0
0
0
0
0
0
0
0
0
0
0
0
0
0
0
0
0
0
0
0
0
0
0
0
0
0
0
0
0
0
0
0
0
0
0
0
0
0
0
0
0
0
0
0
0
0
0
0
0
0
0
0
0
0
0
0
0
0
0
0
0
0
0
0
0
0
0
0
0
0
0
0
0
0
0
0
0
0
0
0
0
0
0
0
0
0
0
0
0
0
0
0
0
0
0
0
0
0
0
0
0
0
0
0
0
0
0
0
0
0
0
0
0
0
0
0
0
0
0
0
0
0
0
0
0
0
0
0
0
0
0
0
0
0
0
0
0
0
0
0
0
0
0
0
0
0
0
0
0
0
0
0
0
0
0
0
0
0
0
0
0
0
0
0
0
0
0
0
0
0
0
0
0
0
0
0
0
0
0
0
0
0
0
0
0
0
0
0
0
0
0
0
0
0
)

// normalDirections

130
(
2(1 -1)
2(1 -1)
2(1 -1)
2(1 -1)
2(1 -1)
2(1 -1)
2(1 -1)
2(1 -1)
2(1 -1)
2(1 -1)
2(1 -1)
2(1 -1)
2(1 -1)
2(1 -1)
2(1 -1)
2(1 -1)
2(1 -1)
2(1 -1)
2(1 -1)
2(1 -1)
2(1 -1)
2(1 -1)
2(1 -1)
2(1 -1)
2(1 -1)
2(1 -1)
2(1 -1)
2(1 -1)
2(1 -1)
2(1 -1)
2(1 -1)
2(1 -1)
2(1 -1)
2(1 -1)
2(1 -1)
2(1 -1)
2(1 -1)
2(1 -1)
2(1 -1)
2(1 -1)
2(1 -1)
2(1 -1)
2(1 -1)
2(1 -1)
2(1 -1)
2(1 -1)
2(1 -1)
2(1 -1)
2(1 -1)
2(1 -1)
2(1 -1)
2(1 -1)
2(1 -1)
2(1 -1)
2(1 -1)
2(1 -1)
2(1 -1)
2(1 -1)
2(1 -1)
2(1 -1)
2(1 -1)
2(1 -1)
2(1 -1)
2(1 -1)
2(1 -1)
2(1 -1)
2(1 -1)
2(1 -1)
2(1 -1)
2(1 -1)
2(1 -1)
2(1 -1)
2(1 -1)
2(1 -1)
2(1 -1)
2(1 -1)
2(1 -1)
2(1 -1)
2(1 -1)
2(1 -1)
2(1 -1)
2(1 -1)
2(1 -1)
2(1 -1)
2(1 -1)
2(1 -1)
2(1 -1)
2(1 -1)
2(1 -1)
2(1 -1)
2(1 -1)
2(1 -1)
2(1 -1)
2(1 -1)
2(1 -1)
2(1 -1)
2(1 -1)
2(1 -1)
2(1 -1)
2(1 -1)
2(1 -1)
2(1 -1)
2(1 -1)
2(1 -1)
2(1 -1)
2(1 -1)
2(1 -1)
2(1 -1)
2(1 -1)
2(1 -1)
2(1 -1)
2(1 -1)
2(1 -1)
2(1 -1)
2(1 -1)
2(1 -1)
2(1 -1)
2(1 -1)
2(1 -1)
2(1 -1)
2(1 -1)
2(1 -1)
2(1 -1)
2(1 -1)
2(1 -1)
2(1 -1)
2(1 -1)
2(1 -1)
2(1 -1)
2(1 -1)
)

// edgeNormals

130
(
2(0 1)
2(2 1)
2(3 4)
2(5 6)
2(7 8)
2(9 10)
2(11 12)
2(13 14)
2(15 16)
2(17 18)
2(19 20)
2(21 22)
2(23 24)
2(25 26)
2(27 28)
2(29 30)
2(31 32)
2(33 34)
2(35 36)
2(37 38)
2(39 40)
2(41 42)
2(43 44)
2(45 46)
2(47 48)
2(49 50)
2(51 52)
2(53 54)
2(55 56)
2(57 58)
2(59 60)
2(61 62)
2(63 64)
2(65 64)
2(66 67)
2(68 69)
2(70 71)
2(72 73)
2(74 75)
2(76 77)
2(78 79)
2(80 81)
2(82 83)
2(84 85)
2(86 87)
2(88 89)
2(90 91)
2(92 93)
2(94 95)
2(96 97)
2(98 99)
2(100 101)
2(102 103)
2(104 105)
2(106 107)
2(108 109)
2(110 111)
2(112 113)
2(114 115)
2(116 117)
2(118 119)
2(120 121)
2(122 123)
2(124 125)
2(126 127)
2(128 129)
2(130 129)
2(131 132)
2(133 134)
2(135 136)
2(137 138)
2(139 140)
2(141 142)
2(143 144)
2(145 146)
2(147 148)
2(149 150)
2(151 152)
2(153 154)
2(155 156)
2(157 158)
2(159 160)
2(161 162)
2(163 164)
2(165 166)
2(167 168)
2(169 170)
2(171 172)
2(173 174)
2(175 176)
2(177 178)
2(179 180)
2(181 182)
2(183 184)
2(185 186)
2(187 188)
2(189 190)
2(191 192)
2(193 192)
2(194 195)
2(196 197)
2(198 199)
2(200 201)
2(202 203)
2(204 205)
2(206 207)
2(208 209)
2(210 211)
2(212 213)
2(214 215)
2(216 217)
2(218 219)
2(220 221)
2(222 223)
2(224 225)
2(226 227)
2(228 229)
2(230 231)
2(232 233)
2(234 235)
2(236 237)
2(238 239)
2(240 241)
2(242 243)
2(244 245)
2(246 247)
2(248 249)
2(250 251)
2(252 253)
2(254 255)
)

// featurePointNormals
0()
// featurePointEdges
0()
// regionEdges
0()


// ************************************************************************* //
