/*--------------------------------*- C++ -*----------------------------------*\
  =========                 |
  \\      /  F ield         | OpenFOAM: The Open Source CFD Toolbox
   \\    /   O peration     | Website:  https://openfoam.org
    \\  /    A nd           | Version:  8
     \\/     M anipulation  |
\*---------------------------------------------------------------------------*/
FoamFile
{
    version     2.0;
    format      ascii;
    class       extendedFeatureEdgeMesh;
    location    "constant/extendedFeatureEdgeMesh";
    object      HOLDER.extendedFeatureEdgeMesh;
}
// * * * * * * * * * * * * * * * * * * * * * * * * * * * * * * * * * * * * * //

// points

48
(
(-0.653611 2.41305 284.83)
(-0.00679744 2.49999 284.83)
(-1.25588 2.16166 284.83)
(-1.77257 1.76295 284.83)
(-2.16845 1.24411 284.83)
(-2.41656 0.640479 284.83)
(-2.49999 -0.00679744 284.83)
(-2.41305 -0.653611 284.83)
(-2.16166 -1.25588 284.83)
(-1.76295 -1.77257 284.83)
(-1.24411 -2.16845 284.83)
(-0.640479 -2.41656 284.83)
(0.00679744 -2.49999 284.83)
(0.653611 -2.41305 284.83)
(1.25588 -2.16166 284.83)
(1.77257 -1.76295 284.83)
(2.16845 -1.24411 284.83)
(2.41656 -0.640479 284.83)
(2.49999 0.00679744 284.83)
(2.41305 0.653611 284.83)
(2.16166 1.25588 284.83)
(1.76295 1.77257 284.83)
(1.24411 2.16845 284.83)
(0.640479 2.41656 284.83)
(-0.653611 2.41305 27.4)
(-1.25588 2.16166 27.4)
(-0.00679744 2.49999 27.4)
(0.640479 2.41656 27.4)
(1.24411 2.16845 27.4)
(1.76295 1.77257 27.4)
(2.16166 1.25588 27.4)
(2.41305 0.653611 27.4)
(2.49999 0.00679744 27.4)
(2.41656 -0.640479 27.4)
(2.16845 -1.24411 27.4)
(1.77257 -1.76295 27.4)
(1.25588 -2.16166 27.4)
(0.653611 -2.41305 27.4)
(0.00679744 -2.49999 27.4)
(-0.640479 -2.41656 27.4)
(-1.24411 -2.16845 27.4)
(-1.76295 -1.77257 27.4)
(-2.16166 -1.25588 27.4)
(-2.41305 -0.653611 27.4)
(-2.49999 -0.00679744 27.4)
(-2.41656 0.640479 27.4)
(-2.16845 1.24411 27.4)
(-1.77257 1.76295 27.4)
)

// edges

48
(
(0 1)
(2 0)
(3 2)
(4 3)
(5 4)
(6 5)
(7 6)
(8 7)
(9 8)
(10 9)
(11 10)
(12 11)
(13 12)
(14 13)
(15 14)
(16 15)
(17 16)
(18 17)
(19 18)
(20 19)
(21 20)
(22 21)
(23 22)
(1 23)
(24 25)
(26 24)
(27 26)
(28 27)
(29 28)
(30 29)
(31 30)
(32 31)
(33 32)
(34 33)
(35 34)
(36 35)
(37 36)
(38 37)
(39 38)
(40 39)
(41 40)
(42 41)
(43 42)
(44 43)
(45 44)
(46 45)
(47 46)
(25 47)
)

// concaveStart mixedStart nonFeatureStart
0 0 0
// internalStart flatStart openStart multipleStart
48 48 48 48
// normals

92
(
(-0.133222 0.991086 0)
(-0 0 1)
(-0.385193 0.922836 0)
(-0.610916 0.791695 0)
(0 0 1)
(-0.795006 0.606602 0)
(0 0 1)
(-0.924917 0.38017 0)
(0 0 1)
(-0.991796 0.12783 0)
(0 0 1)
(-0.991086 -0.133222 -0)
(0 0 1)
(-0.922836 -0.385193 -0)
(0 0 1)
(-0.791695 -0.610916 -0)
(0 0 1)
(-0.606602 -0.795006 -0)
(0 0 1)
(-0.38017 -0.924917 -0)
(0 0 1)
(-0.12783 -0.991796 -0)
(0 0 1)
(0.133222 -0.991086 0)
(0 0 1)
(0.385193 -0.922836 0)
(0.610916 -0.791695 0)
(0 0 1)
(0.795006 -0.606602 0)
(0 0 1)
(0.924917 -0.38017 0)
(0 0 1)
(0.991796 -0.12783 0)
(0 0 1)
(0.991086 0.133222 0)
(0 0 1)
(0.922836 0.385193 0)
(0 0 1)
(0.791695 0.610916 0)
(0 0 1)
(0.606602 0.795006 0)
(0 0 1)
(0.38017 0.924917 0)
(0 0 1)
(0.12783 0.991796 0)
(0 0 1)
(-0.385193 0.922836 0)
(0 -0 -1)
(-0.133222 0.991086 0)
(0.12783 0.991796 -0)
(0 0 -1)
(0.38017 0.924917 -0)
(0 0 -1)
(0.606602 0.795006 -0)
(0 0 -1)
(0.791695 0.610916 -0)
(0 0 -1)
(0.922836 0.385193 -0)
(0 0 -1)
(0.991086 0.133222 -0)
(0 0 -1)
(0.991796 -0.12783 0)
(0 0 -1)
(0.924917 -0.38017 0)
(0 0 -1)
(0.795006 -0.606602 0)
(0 0 -1)
(0.610916 -0.791695 0)
(0 0 -1)
(0.385193 -0.922836 0)
(0 0 -1)
(0.133222 -0.991086 0)
(-0.12783 -0.991796 0)
(0 0 -1)
(-0.38017 -0.924917 0)
(0 0 -1)
(-0.606602 -0.795006 0)
(0 0 -1)
(-0.791695 -0.610916 0)
(0 0 -1)
(-0.922836 -0.385193 0)
(0 0 -1)
(-0.991086 -0.133222 0)
(0 0 -1)
(-0.991796 0.12783 0)
(0 -0 -1)
(-0.924917 0.38017 0)
(0 -0 -1)
(-0.795006 0.606602 0)
(0 -0 -1)
(-0.610916 0.791695 0)
(0 -0 -1)
)

// normal volume types

92
(
0
0
0
0
0
0
0
0
0
0
0
0
0
0
0
0
0
0
0
0
0
0
0
0
0
0
0
0
0
0
0
0
0
0
0
0
0
0
0
0
0
0
0
0
0
0
0
0
0
0
0
0
0
0
0
0
0
0
0
0
0
0
0
0
0
0
0
0
0
0
0
0
0
0
0
0
0
0
0
0
0
0
0
0
0
0
0
0
0
0
0
0
)

// normalDirections

48
(
2(1 -1)
2(1 -1)
2(1 -1)
2(1 -1)
2(1 -1)
2(1 -1)
2(1 -1)
2(1 -1)
2(1 -1)
2(1 -1)
2(1 -1)
2(1 -1)
2(1 -1)
2(1 -1)
2(1 -1)
2(1 -1)
2(1 -1)
2(1 -1)
2(1 -1)
2(1 -1)
2(1 -1)
2(1 -1)
2(1 -1)
2(1 -1)
2(1 -1)
2(1 -1)
2(1 -1)
2(1 -1)
2(1 -1)
2(1 -1)
2(1 -1)
2(1 -1)
2(1 -1)
2(1 -1)
2(1 -1)
2(1 -1)
2(1 -1)
2(1 -1)
2(1 -1)
2(1 -1)
2(1 -1)
2(1 -1)
2(1 -1)
2(1 -1)
2(1 -1)
2(1 -1)
2(1 -1)
2(1 -1)
)

// edgeNormals

48
(
2(0 1)
2(2 1)
2(3 4)
2(5 6)
2(7 8)
2(9 10)
2(11 12)
2(13 14)
2(15 16)
2(17 18)
2(19 20)
2(21 22)
2(23 24)
2(25 24)
2(26 27)
2(28 29)
2(30 31)
2(32 33)
2(34 35)
2(36 37)
2(38 39)
2(40 41)
2(42 43)
2(44 45)
2(46 47)
2(48 47)
2(49 50)
2(51 52)
2(53 54)
2(55 56)
2(57 58)
2(59 60)
2(61 62)
2(63 64)
2(65 66)
2(67 68)
2(69 70)
2(71 70)
2(72 73)
2(74 75)
2(76 77)
2(78 79)
2(80 81)
2(82 83)
2(84 85)
2(86 87)
2(88 89)
2(90 91)
)

// featurePointNormals
0()
// featurePointEdges
0()
// regionEdges
0()


// ************************************************************************* //
