/*--------------------------------*- C++ -*----------------------------------*\
  =========                 |
  \\      /  F ield         | OpenFOAM: The Open Source CFD Toolbox
   \\    /   O peration     | Website:  https://openfoam.org
    \\  /    A nd           | Version:  8
     \\/     M anipulation  |
\*---------------------------------------------------------------------------*/
FoamFile
{
    version     2.0;
    format      ascii;
    class       extendedFeatureEdgeMesh;
    location    "constant/extendedFeatureEdgeMesh";
    object      MRF.extendedFeatureEdgeMesh;
}
// * * * * * * * * * * * * * * * * * * * * * * * * * * * * * * * * * * * * * //

// points

204
(
(-35.1855 12.9704 32.4)
(-34.3203 15.1119 32.4)
(-35.1855 12.9704 -7.6)
(-35.9172 10.7798 -7.6)
(-35.9172 10.7798 32.4)
(-36.5127 8.54825 -7.6)
(-36.5127 8.54825 32.4)
(-36.9697 6.28428 -7.6)
(-36.9697 6.28428 32.4)
(-37.2864 3.99647 -7.6)
(-37.2864 3.99647 32.4)
(-37.4617 1.69351 -7.6)
(-37.4617 1.69351 32.4)
(-37.4949 -0.615884 -7.6)
(-37.4949 -0.615884 32.4)
(-37.3859 -2.92294 -7.6)
(-37.3859 -2.92294 32.4)
(-37.1351 -5.2189 -7.6)
(-37.1351 -5.2189 32.4)
(-36.7434 -7.49508 -7.6)
(-36.7434 -7.49508 32.4)
(-36.2123 -9.74281 -7.6)
(-36.2123 -9.74281 32.4)
(-35.5438 -11.9536 -7.6)
(-35.5438 -11.9536 32.4)
(-34.7405 -14.119 -7.6)
(-34.7405 -14.119 32.4)
(-33.8054 -16.2309 -7.6)
(-33.8054 -16.2309 32.4)
(-32.7421 -18.2812 -7.6)
(-32.7421 -18.2812 32.4)
(-31.5546 -20.2622 -7.6)
(-31.5546 -20.2622 32.4)
(-30.2474 -22.1663 -7.6)
(-30.2474 -22.1663 32.4)
(-28.8255 -23.9863 -7.6)
(-28.8255 -23.9863 32.4)
(-27.2942 -25.7153 -7.6)
(-27.2942 -25.7153 32.4)
(-25.6593 -27.3468 -7.6)
(-25.6593 -27.3468 32.4)
(-23.9272 -28.8745 -7.6)
(-23.9272 -28.8745 32.4)
(-22.1043 -30.2928 -7.6)
(-22.1043 -30.2928 32.4)
(-20.1975 -31.5961 -7.6)
(-20.1975 -31.5961 32.4)
(-18.2141 -32.7795 -7.6)
(-18.2141 -32.7795 32.4)
(-16.1616 -33.8386 -7.6)
(-16.1616 -33.8386 32.4)
(-14.0478 -34.7694 -7.6)
(-14.0478 -34.7694 32.4)
(-11.8807 -35.5682 -7.6)
(-11.8807 -35.5682 32.4)
(-9.6686 -36.2321 -7.6)
(-9.6686 -36.2321 32.4)
(-7.41978 -36.7586 -7.6)
(-7.41978 -36.7586 32.4)
(-5.14282 -37.1457 -7.6)
(-5.14282 -37.1457 32.4)
(-2.84634 -37.3918 -7.6)
(-2.84634 -37.3918 32.4)
(-0.539067 -37.4961 -7.6)
(-0.539067 -37.4961 32.4)
(1.77025 -37.4582 -7.6)
(1.77025 -37.4582 32.4)
(4.07285 -37.2782 -7.6)
(4.07285 -37.2782 32.4)
(6.36001 -36.9567 -7.6)
(6.36001 -36.9567 32.4)
(8.62303 -36.4951 -7.6)
(8.62303 -36.4951 32.4)
(10.8533 -35.8951 -7.6)
(10.8533 -35.8951 32.4)
(13.0425 -35.1588 -7.6)
(13.0425 -35.1588 32.4)
(15.1822 -34.2892 -7.6)
(15.1822 -34.2892 32.4)
(17.2642 -33.2896 -7.6)
(17.2642 -33.2896 32.4)
(19.2808 -32.1636 -7.6)
(19.2808 -32.1636 32.4)
(21.2243 -30.9157 -7.6)
(21.2243 -30.9157 32.4)
(23.0872 -29.5505 -7.6)
(23.0872 -29.5505 32.4)
(24.8626 -28.0731 -7.6)
(24.8626 -28.0731 32.4)
(26.5436 -26.4893 -7.6)
(26.5436 -26.4893 32.4)
(28.124 -24.805 -7.6)
(28.124 -24.805 32.4)
(29.5977 -23.0266 -7.6)
(29.5977 -23.0266 32.4)
(30.9591 -21.1609 -7.6)
(30.9591 -21.1609 32.4)
(32.2031 -19.2149 -7.6)
(32.2031 -19.2149 32.4)
(33.3249 -17.196 -7.6)
(33.3249 -17.196 32.4)
(34.3203 -15.1119 32.4)
(34.3203 -15.1119 -7.6)
(35.1855 -12.9704 32.4)
(35.1855 -12.9704 -7.6)
(35.9172 -10.7798 32.4)
(35.9172 -10.7798 -7.6)
(36.5127 -8.54825 32.4)
(36.5127 -8.54825 -7.6)
(36.9697 -6.28428 -7.6)
(-34.3203 15.1119 -7.6)
(-33.3249 17.196 32.4)
(-33.3249 17.196 -7.6)
(-32.2031 19.2149 32.4)
(-32.2031 19.2149 -7.6)
(-30.9591 21.1609 32.4)
(-30.9591 21.1609 -7.6)
(-29.5977 23.0266 32.4)
(-29.5977 23.0266 -7.6)
(-28.124 24.805 32.4)
(-28.124 24.805 -7.6)
(-26.5436 26.4893 32.4)
(-26.5436 26.4893 -7.6)
(-24.8626 28.0731 32.4)
(-24.8626 28.0731 -7.6)
(-23.0872 29.5505 32.4)
(-23.0872 29.5505 -7.6)
(-21.2243 30.9157 32.4)
(-21.2243 30.9157 -7.6)
(-19.2808 32.1636 32.4)
(-19.2808 32.1636 -7.6)
(-17.2642 33.2896 32.4)
(-17.2642 33.2896 -7.6)
(-15.1822 34.2892 32.4)
(-15.1822 34.2892 -7.6)
(-13.0425 35.1588 32.4)
(-13.0425 35.1588 -7.6)
(-10.8533 35.8951 32.4)
(-10.8533 35.8951 -7.6)
(-8.62303 36.4951 32.4)
(-8.62303 36.4951 -7.6)
(-6.36001 36.9567 32.4)
(-6.36001 36.9567 -7.6)
(-4.07285 37.2782 32.4)
(-4.07285 37.2782 -7.6)
(-1.77025 37.4582 32.4)
(-1.77025 37.4582 -7.6)
(0.539067 37.4961 32.4)
(0.539067 37.4961 -7.6)
(2.84634 37.3918 32.4)
(2.84634 37.3918 -7.6)
(5.14282 37.1457 32.4)
(5.14282 37.1457 -7.6)
(7.41978 36.7586 32.4)
(7.41978 36.7586 -7.6)
(9.6686 36.2321 32.4)
(9.6686 36.2321 -7.6)
(11.8807 35.5682 32.4)
(11.8807 35.5682 -7.6)
(14.0478 34.7694 32.4)
(14.0478 34.7694 -7.6)
(16.1616 33.8386 32.4)
(16.1616 33.8386 -7.6)
(18.2141 32.7795 32.4)
(18.2141 32.7795 -7.6)
(20.1975 31.5961 32.4)
(20.1975 31.5961 -7.6)
(22.1043 30.2928 32.4)
(22.1043 30.2928 -7.6)
(23.9272 28.8745 32.4)
(23.9272 28.8745 -7.6)
(25.6593 27.3468 32.4)
(25.6593 27.3468 -7.6)
(27.2942 25.7153 32.4)
(27.2942 25.7153 -7.6)
(28.8255 23.9863 32.4)
(28.8255 23.9863 -7.6)
(30.2474 22.1663 32.4)
(30.2474 22.1663 -7.6)
(31.5546 20.2622 32.4)
(31.5546 20.2622 -7.6)
(32.7421 18.2812 32.4)
(32.7421 18.2812 -7.6)
(33.8054 16.2309 32.4)
(33.8054 16.2309 -7.6)
(34.7405 14.119 32.4)
(34.7405 14.119 -7.6)
(35.5438 11.9536 32.4)
(35.5438 11.9536 -7.6)
(36.2123 9.74281 32.4)
(36.2123 9.74281 -7.6)
(36.7434 7.49508 32.4)
(36.7434 7.49508 -7.6)
(37.1351 5.2189 32.4)
(37.1351 5.2189 -7.6)
(37.3859 2.92294 32.4)
(37.3859 2.92294 -7.6)
(37.4949 0.615884 32.4)
(37.4949 0.615884 -7.6)
(37.4617 -1.69351 32.4)
(37.4617 -1.69351 -7.6)
(37.2864 -3.99647 32.4)
(37.2864 -3.99647 -7.6)
(36.9697 -6.28428 32.4)
)

// edges

204
(
(0 1)
(2 3)
(4 0)
(3 5)
(6 4)
(5 7)
(8 6)
(7 9)
(10 8)
(9 11)
(12 10)
(11 13)
(14 12)
(13 15)
(16 14)
(15 17)
(18 16)
(17 19)
(20 18)
(19 21)
(22 20)
(21 23)
(24 22)
(23 25)
(26 24)
(25 27)
(28 26)
(27 29)
(30 28)
(29 31)
(32 30)
(31 33)
(34 32)
(33 35)
(36 34)
(35 37)
(38 36)
(37 39)
(40 38)
(39 41)
(42 40)
(41 43)
(44 42)
(43 45)
(46 44)
(45 47)
(48 46)
(47 49)
(50 48)
(49 51)
(52 50)
(51 53)
(54 52)
(53 55)
(56 54)
(55 57)
(58 56)
(57 59)
(60 58)
(59 61)
(62 60)
(61 63)
(64 62)
(63 65)
(66 64)
(65 67)
(68 66)
(67 69)
(70 68)
(69 71)
(72 70)
(71 73)
(74 72)
(73 75)
(76 74)
(75 77)
(78 76)
(77 79)
(80 78)
(79 81)
(82 80)
(81 83)
(84 82)
(83 85)
(86 84)
(85 87)
(88 86)
(87 89)
(90 88)
(89 91)
(92 90)
(91 93)
(94 92)
(93 95)
(96 94)
(95 97)
(98 96)
(97 99)
(100 98)
(101 100)
(99 102)
(103 101)
(102 104)
(105 103)
(104 106)
(107 105)
(106 108)
(108 109)
(110 2)
(1 111)
(112 110)
(111 113)
(114 112)
(113 115)
(116 114)
(115 117)
(118 116)
(117 119)
(120 118)
(119 121)
(122 120)
(121 123)
(124 122)
(123 125)
(126 124)
(125 127)
(128 126)
(127 129)
(130 128)
(129 131)
(132 130)
(131 133)
(134 132)
(133 135)
(136 134)
(135 137)
(138 136)
(137 139)
(140 138)
(139 141)
(142 140)
(141 143)
(144 142)
(143 145)
(146 144)
(145 147)
(148 146)
(147 149)
(150 148)
(149 151)
(152 150)
(151 153)
(154 152)
(153 155)
(156 154)
(155 157)
(158 156)
(157 159)
(160 158)
(159 161)
(162 160)
(161 163)
(164 162)
(163 165)
(166 164)
(165 167)
(168 166)
(167 169)
(170 168)
(169 171)
(172 170)
(171 173)
(174 172)
(173 175)
(176 174)
(175 177)
(178 176)
(177 179)
(180 178)
(179 181)
(182 180)
(181 183)
(184 182)
(183 185)
(186 184)
(185 187)
(188 186)
(187 189)
(190 188)
(189 191)
(192 190)
(191 193)
(194 192)
(193 195)
(196 194)
(195 197)
(198 196)
(197 199)
(200 198)
(199 201)
(202 200)
(201 203)
(109 202)
(203 107)
)

// concaveStart mixedStart nonFeatureStart
0 0 0
// internalStart flatStart openStart multipleStart
204 204 204 204
// normals

404
(
(-0.927183 0.374609 0)
(-0 0 1)
(-0.948486 0.316818 0)
(0 -0 -1)
(-0.948486 0.316818 0)
(-0.966191 0.257829 0)
(0 -0 -1)
(-0.966191 0.257829 0)
(0 0 1)
(-0.98023 0.197863 0)
(0 -0 -1)
(-0.98023 0.197863 0)
(0 0 1)
(-0.990552 0.13714 0)
(0 -0 -1)
(-0.990552 0.13714 0)
(0 0 1)
(-0.997115 0.0759032 0)
(0 -0 -1)
(-0.997115 0.0759032 0)
(0 0 1)
(-0.999897 0.014376 0)
(0 -0 -1)
(-0.999897 0.014376 0)
(0 0 1)
(-0.998885 -0.0472074 -0)
(0 0 -1)
(-0.998885 -0.0472074 0)
(0 0 1)
(-0.994084 -0.108611 -0)
(0 0 -1)
(-0.994084 -0.108611 0)
(0 0 1)
(-0.985513 -0.169598 -0)
(0 0 -1)
(-0.985513 -0.169598 0)
(0 0 1)
(-0.973203 -0.229946 -0)
(0 0 -1)
(-0.973203 -0.229946 0)
(0 0 1)
(-0.957201 -0.289424 -0)
(0 0 -1)
(-0.957201 -0.289424 0)
(0 0 1)
(-0.937569 -0.3478 -0)
(0 0 -1)
(-0.937569 -0.3478 0)
(0 0 1)
(-0.91438 -0.404857 -0)
(0 0 -1)
(-0.91438 -0.404857 0)
(0 0 1)
(-0.887722 -0.46038 -0)
(0 0 -1)
(-0.887722 -0.46038 0)
(0 0 1)
(-0.857697 -0.514156 -0)
(0 0 -1)
(-0.857697 -0.514156 0)
(0 0 1)
(-0.824417 -0.565982 -0)
(0 0 -1)
(-0.824417 -0.565982 0)
(0 0 1)
(-0.788014 -0.615658 -0)
(0 0 -1)
(-0.788014 -0.615658 0)
(0 0 1)
(-0.748616 -0.663004 -0)
(0 0 -1)
(-0.748616 -0.663004 0)
(0 0 1)
(-0.706381 -0.707832 -0)
(0 0 -1)
(-0.706381 -0.707832 0)
(0 0 1)
(-0.661469 -0.749972 -0)
(0 0 -1)
(-0.661469 -0.749972 0)
(0 0 1)
(-0.614042 -0.789273 -0)
(0 0 -1)
(-0.614042 -0.789273 0)
(0 0 1)
(-0.564294 -0.825574 -0)
(0 0 -1)
(-0.564294 -0.825574 0)
(0 0 1)
(-0.512395 -0.85875 -0)
(0 0 -1)
(-0.512395 -0.85875 0)
(0 0 1)
(-0.458562 -0.888662 -0)
(0 0 -1)
(-0.458562 -0.888662 0)
(0 0 1)
(-0.402983 -0.915208 -0)
(0 0 -1)
(-0.402983 -0.915208 0)
(0 0 1)
(-0.345878 -0.938279 -0)
(0 0 -1)
(-0.345878 -0.938279 0)
(0 0 1)
(-0.287461 -0.957792 -0)
(0 0 -1)
(-0.287461 -0.957792 0)
(0 0 1)
(-0.227954 -0.973672 -0)
(0 0 -1)
(-0.227954 -0.973672 0)
(0 0 1)
(-0.167581 -0.985858 -0)
(0 0 -1)
(-0.167581 -0.985858 0)
(0 0 1)
(-0.106571 -0.994305 -0)
(0 0 -1)
(-0.106571 -0.994305 0)
(0 0 1)
(-0.0451643 -0.99898 -0)
(0 0 -1)
(-0.0451643 -0.99898 0)
(0 0 1)
(0.0164273 -0.999865 0)
(0 0 -1)
(0.0164273 -0.999865 0)
(0 0 1)
(0.077943 -0.996958 0)
(0 0 -1)
(0.077943 -0.996958 0)
(0 0 1)
(0.13917 -0.990269 0)
(0 0 -1)
(0.13917 -0.990269 0)
(0 0 1)
(0.199872 -0.979822 0)
(0 0 -1)
(0.199872 -0.979822 0)
(0 0 1)
(0.259808 -0.96566 0)
(0 0 -1)
(0.259808 -0.96566 0)
(0 0 1)
(0.318761 -0.947835 0)
(0 0 -1)
(0.318761 -0.947835 0)
(0 0 1)
(0.376506 -0.926414 0)
(0 0 -1)
(0.376506 -0.926414 0)
(0 0 1)
(0.432827 -0.901477 0)
(0 0 -1)
(0.432827 -0.901477 0)
(0 0 1)
(0.487498 -0.873124 0)
(0 0 -1)
(0.487498 -0.873124 0)
(0 0 1)
(0.540324 -0.841457 0)
(0 0 -1)
(0.540324 -0.841457 0)
(0 0 1)
(0.5911 -0.806598 0)
(0 0 -1)
(0.5911 -0.806598 0)
(0 0 1)
(0.639636 -0.768678 0)
(0 0 -1)
(0.639636 -0.768678 0)
(0 0 1)
(0.685742 -0.727844 0)
(0 0 -1)
(0.685742 -0.727844 0)
(0 0 1)
(0.729248 -0.68425 0)
(0 0 -1)
(0.729248 -0.68425 0)
(0 0 1)
(0.769988 -0.638058 0)
(0 0 -1)
(0.769988 -0.638058 0)
(0 0 1)
(0.807807 -0.589448 0)
(0 0 -1)
(0.807807 -0.589448 0)
(0 0 1)
(0.842562 -0.538599 0)
(0 0 -1)
(0.842562 -0.538599 0)
(0 0 1)
(0.874121 -0.485709 0)
(0 0 -1)
(0.874121 -0.485709 0)
(0 0 1)
(0.902362 -0.430978 0)
(0 0 1)
(0.902362 -0.430978 0)
(0 0 -1)
(0.927183 -0.374609 0)
(0 0 1)
(0.927183 -0.374609 0)
(0 0 -1)
(0.948486 -0.316818 0)
(0.948486 -0.316818 0)
(0.966191 -0.257829 0)
(0 0 1)
(0.966191 -0.257829 0)
(0 0 -1)
(0.98023 -0.197863 0)
(0 0 -1)
(-0.927183 0.374609 0)
(-0.902362 0.430978 0)
(-0 0 1)
(-0.902362 0.430978 0)
(0 0 -1)
(-0.874121 0.485709 0)
(-0 0 1)
(-0.874121 0.485709 0)
(0 0 -1)
(-0.842562 0.538599 0)
(-0 0 1)
(-0.842562 0.538599 0)
(0 0 -1)
(-0.807807 0.589448 0)
(-0 0 1)
(-0.807807 0.589448 0)
(0 0 -1)
(-0.769988 0.638058 0)
(-0 0 1)
(-0.769988 0.638058 0)
(0 0 -1)
(-0.729248 0.68425 0)
(-0 0 1)
(-0.729248 0.68425 0)
(0 0 -1)
(-0.685742 0.727844 0)
(-0 0 1)
(-0.685742 0.727844 0)
(0 0 -1)
(-0.639636 0.768678 0)
(-0 0 1)
(-0.639636 0.768678 0)
(0 0 -1)
(-0.5911 0.806598 0)
(-0 0 1)
(-0.5911 0.806598 0)
(0 0 -1)
(-0.540324 0.841457 0)
(-0 0 1)
(-0.540324 0.841457 0)
(0 0 -1)
(-0.487498 0.873124 0)
(-0 0 1)
(-0.487498 0.873124 0)
(0 0 -1)
(-0.432827 0.901477 0)
(-0 0 1)
(-0.432827 0.901477 0)
(0 0 -1)
(-0.376506 0.926414 0)
(-0 0 1)
(-0.376506 0.926414 0)
(0 0 -1)
(-0.318761 0.947835 0)
(-0 0 1)
(-0.318761 0.947835 0)
(0 0 -1)
(-0.259808 0.96566 0)
(-0 0 1)
(-0.259808 0.96566 0)
(0 0 -1)
(-0.199872 0.979822 0)
(-0 0 1)
(-0.199872 0.979822 0)
(0 0 -1)
(-0.13917 0.990269 0)
(-0 0 1)
(-0.13917 0.990269 0)
(0 0 -1)
(-0.077943 0.996958 0)
(-0 0 1)
(-0.077943 0.996958 0)
(0 0 -1)
(-0.0164273 0.999865 0)
(-0 0 1)
(-0.0164273 0.999865 0)
(0 0 -1)
(0.0451643 0.99898 -0)
(0 0 1)
(0.0451643 0.99898 0)
(0 0 -1)
(0.106571 0.994305 -0)
(0 0 1)
(0.106571 0.994305 0)
(0 0 -1)
(0.167581 0.985858 -0)
(0 0 1)
(0.167581 0.985858 0)
(0 0 -1)
(0.227954 0.973672 -0)
(0 0 1)
(0.227954 0.973672 0)
(0 0 -1)
(0.287461 0.957792 -0)
(0 0 1)
(0.287461 0.957792 0)
(0 0 -1)
(0.345878 0.938279 -0)
(0 0 1)
(0.345878 0.938279 0)
(0 0 -1)
(0.402983 0.915208 -0)
(0 0 1)
(0.402983 0.915208 0)
(0 0 -1)
(0.458562 0.888662 -0)
(0 0 1)
(0.458562 0.888662 0)
(0 0 -1)
(0.512395 0.85875 -0)
(0 0 1)
(0.512395 0.85875 0)
(0 0 -1)
(0.564294 0.825574 -0)
(0 0 1)
(0.564294 0.825574 0)
(0 0 -1)
(0.614042 0.789273 -0)
(0 0 1)
(0.614042 0.789273 0)
(0 0 -1)
(0.661469 0.749972 -0)
(0 0 1)
(0.661469 0.749972 0)
(0 0 -1)
(0.706381 0.707832 -0)
(0 0 1)
(0.706381 0.707832 0)
(0 0 -1)
(0.748616 0.663004 -0)
(0 0 1)
(0.748616 0.663004 0)
(0 0 -1)
(0.788014 0.615658 -0)
(0 0 1)
(0.788014 0.615658 0)
(0 0 -1)
(0.824417 0.565982 -0)
(0 0 1)
(0.824417 0.565982 0)
(0 0 -1)
(0.857697 0.514156 -0)
(0 0 1)
(0.857697 0.514156 0)
(0 0 -1)
(0.887722 0.46038 -0)
(0 0 1)
(0.887722 0.46038 0)
(0 0 -1)
(0.91438 0.404857 -0)
(0 0 1)
(0.91438 0.404857 0)
(0 0 -1)
(0.937569 0.3478 -0)
(0 0 1)
(0.937569 0.3478 0)
(0 0 -1)
(0.957201 0.289424 -0)
(0 0 1)
(0.957201 0.289424 0)
(0 0 -1)
(0.973203 0.229946 -0)
(0 0 1)
(0.973203 0.229946 0)
(0 0 -1)
(0.985513 0.169598 -0)
(0 0 1)
(0.985513 0.169598 0)
(0 0 -1)
(0.994084 0.108611 -0)
(0 0 1)
(0.994084 0.108611 0)
(0 0 -1)
(0.998885 0.0472074 -0)
(0 0 1)
(0.998885 0.0472074 0)
(0 0 -1)
(0.999897 -0.014376 0)
(0 0 1)
(0.999897 -0.014376 0)
(0 0 -1)
(0.997115 -0.0759032 0)
(0 0 1)
(0.997115 -0.0759032 0)
(0 0 -1)
(0.990552 -0.13714 0)
(0 0 1)
(0.990552 -0.13714 0)
(0 0 -1)
(0.98023 -0.197863 0)
(0 0 1)
)

// normal volume types

404
(
0
0
0
0
0
0
0
0
0
0
0
0
0
0
0
0
0
0
0
0
0
0
0
0
0
0
0
0
0
0
0
0
0
0
0
0
0
0
0
0
0
0
0
0
0
0
0
0
0
0
0
0
0
0
0
0
0
0
0
0
0
0
0
0
0
0
0
0
0
0
0
0
0
0
0
0
0
0
0
0
0
0
0
0
0
0
0
0
0
0
0
0
0
0
0
0
0
0
0
0
0
0
0
0
0
0
0
0
0
0
0
0
0
0
0
0
0
0
0
0
0
0
0
0
0
0
0
0
0
0
0
0
0
0
0
0
0
0
0
0
0
0
0
0
0
0
0
0
0
0
0
0
0
0
0
0
0
0
0
0
0
0
0
0
0
0
0
0
0
0
0
0
0
0
0
0
0
0
0
0
0
0
0
0
0
0
0
0
0
0
0
0
0
0
0
0
0
0
0
0
0
0
0
0
0
0
0
0
0
0
0
0
0
0
0
0
0
0
0
0
0
0
0
0
0
0
0
0
0
0
0
0
0
0
0
0
0
0
0
0
0
0
0
0
0
0
0
0
0
0
0
0
0
0
0
0
0
0
0
0
0
0
0
0
0
0
0
0
0
0
0
0
0
0
0
0
0
0
0
0
0
0
0
0
0
0
0
0
0
0
0
0
0
0
0
0
0
0
0
0
0
0
0
0
0
0
0
0
0
0
0
0
0
0
0
0
0
0
0
0
0
0
0
0
0
0
0
0
0
0
0
0
0
0
0
0
0
0
0
0
0
0
0
0
0
0
0
0
0
0
0
0
0
0
0
0
0
0
0
0
0
0
0
0
0
0
0
0
0
0
0
0
0
0
0
0
0
0
0
0
0
0
0
0
0
0
0
0
0
0
0
0
0
0
0
0
0
0
0
0
0
0
0
0
)

// normalDirections

204
(
2(1 -1)
2(1 -1)
2(1 -1)
2(1 -1)
2(1 -1)
2(1 -1)
2(1 -1)
2(1 -1)
2(1 -1)
2(1 -1)
2(1 -1)
2(1 -1)
2(1 -1)
2(1 -1)
2(1 -1)
2(1 -1)
2(1 -1)
2(1 -1)
2(1 -1)
2(1 -1)
2(1 -1)
2(1 -1)
2(1 -1)
2(1 -1)
2(1 -1)
2(1 -1)
2(1 -1)
2(1 -1)
2(1 -1)
2(1 -1)
2(1 -1)
2(1 -1)
2(1 -1)
2(1 -1)
2(1 -1)
2(1 -1)
2(1 -1)
2(1 -1)
2(1 -1)
2(1 -1)
2(1 -1)
2(1 -1)
2(1 -1)
2(1 -1)
2(1 -1)
2(1 -1)
2(1 -1)
2(1 -1)
2(1 -1)
2(1 -1)
2(1 -1)
2(1 -1)
2(1 -1)
2(1 -1)
2(1 -1)
2(1 -1)
2(1 -1)
2(1 -1)
2(1 -1)
2(1 -1)
2(1 -1)
2(1 -1)
2(1 -1)
2(1 -1)
2(1 -1)
2(1 -1)
2(1 -1)
2(1 -1)
2(1 -1)
2(1 -1)
2(1 -1)
2(1 -1)
2(1 -1)
2(1 -1)
2(1 -1)
2(1 -1)
2(1 -1)
2(1 -1)
2(1 -1)
2(1 -1)
2(1 -1)
2(1 -1)
2(1 -1)
2(1 -1)
2(1 -1)
2(1 -1)
2(1 -1)
2(1 -1)
2(1 -1)
2(1 -1)
2(1 -1)
2(1 -1)
2(1 -1)
2(1 -1)
2(1 -1)
2(1 -1)
2(1 -1)
2(1 -1)
2(1 -1)
2(1 -1)
2(1 -1)
2(1 -1)
2(1 -1)
2(1 -1)
2(1 -1)
2(1 -1)
2(1 -1)
2(1 -1)
2(1 -1)
2(1 -1)
2(1 -1)
2(1 -1)
2(1 -1)
2(1 -1)
2(1 -1)
2(1 -1)
2(1 -1)
2(1 -1)
2(1 -1)
2(1 -1)
2(1 -1)
2(1 -1)
2(1 -1)
2(1 -1)
2(1 -1)
2(1 -1)
2(1 -1)
2(1 -1)
2(1 -1)
2(1 -1)
2(1 -1)
2(1 -1)
2(1 -1)
2(1 -1)
2(1 -1)
2(1 -1)
2(1 -1)
2(1 -1)
2(1 -1)
2(1 -1)
2(1 -1)
2(1 -1)
2(1 -1)
2(1 -1)
2(1 -1)
2(1 -1)
2(1 -1)
2(1 -1)
2(1 -1)
2(1 -1)
2(1 -1)
2(1 -1)
2(1 -1)
2(1 -1)
2(1 -1)
2(1 -1)
2(1 -1)
2(1 -1)
2(1 -1)
2(1 -1)
2(1 -1)
2(1 -1)
2(1 -1)
2(1 -1)
2(1 -1)
2(1 -1)
2(1 -1)
2(1 -1)
2(1 -1)
2(1 -1)
2(1 -1)
2(1 -1)
2(1 -1)
2(1 -1)
2(1 -1)
2(1 -1)
2(1 -1)
2(1 -1)
2(1 -1)
2(1 -1)
2(1 -1)
2(1 -1)
2(1 -1)
2(1 -1)
2(1 -1)
2(1 -1)
2(1 -1)
2(1 -1)
2(1 -1)
2(1 -1)
2(1 -1)
2(1 -1)
2(1 -1)
2(1 -1)
2(1 -1)
2(1 -1)
2(1 -1)
2(1 -1)
2(1 -1)
2(1 -1)
2(1 -1)
2(1 -1)
2(1 -1)
2(1 -1)
)

// edgeNormals

204
(
2(0 1)
2(2 3)
2(4 1)
2(5 6)
2(7 8)
2(9 10)
2(11 12)
2(13 14)
2(15 16)
2(17 18)
2(19 20)
2(21 22)
2(23 24)
2(25 26)
2(27 28)
2(29 30)
2(31 32)
2(33 34)
2(35 36)
2(37 38)
2(39 40)
2(41 42)
2(43 44)
2(45 46)
2(47 48)
2(49 50)
2(51 52)
2(53 54)
2(55 56)
2(57 58)
2(59 60)
2(61 62)
2(63 64)
2(65 66)
2(67 68)
2(69 70)
2(71 72)
2(73 74)
2(75 76)
2(77 78)
2(79 80)
2(81 82)
2(83 84)
2(85 86)
2(87 88)
2(89 90)
2(91 92)
2(93 94)
2(95 96)
2(97 98)
2(99 100)
2(101 102)
2(103 104)
2(105 106)
2(107 108)
2(109 110)
2(111 112)
2(113 114)
2(115 116)
2(117 118)
2(119 120)
2(121 122)
2(123 124)
2(125 126)
2(127 128)
2(129 130)
2(131 132)
2(133 134)
2(135 136)
2(137 138)
2(139 140)
2(141 142)
2(143 144)
2(145 146)
2(147 148)
2(149 150)
2(151 152)
2(153 154)
2(155 156)
2(157 158)
2(159 160)
2(161 162)
2(163 164)
2(165 166)
2(167 168)
2(169 170)
2(171 172)
2(173 174)
2(175 176)
2(177 178)
2(179 180)
2(181 182)
2(183 184)
2(185 186)
2(187 188)
2(189 190)
2(191 192)
2(193 194)
2(195 196)
2(197 198)
2(199 200)
2(201 202)
2(203 204)
2(205 202)
2(206 204)
2(207 208)
2(209 210)
2(211 212)
2(213 3)
2(214 215)
2(216 217)
2(218 219)
2(220 221)
2(222 223)
2(224 225)
2(226 227)
2(228 229)
2(230 231)
2(232 233)
2(234 235)
2(236 237)
2(238 239)
2(240 241)
2(242 243)
2(244 245)
2(246 247)
2(248 249)
2(250 251)
2(252 253)
2(254 255)
2(256 257)
2(258 259)
2(260 261)
2(262 263)
2(264 265)
2(266 267)
2(268 269)
2(270 271)
2(272 273)
2(274 275)
2(276 277)
2(278 279)
2(280 281)
2(282 283)
2(284 285)
2(286 287)
2(288 289)
2(290 291)
2(292 293)
2(294 295)
2(296 297)
2(298 299)
2(300 301)
2(302 303)
2(304 305)
2(306 307)
2(308 309)
2(310 311)
2(312 313)
2(314 315)
2(316 317)
2(318 319)
2(320 321)
2(322 323)
2(324 325)
2(326 327)
2(328 329)
2(330 331)
2(332 333)
2(334 335)
2(336 337)
2(338 339)
2(340 341)
2(342 343)
2(344 345)
2(346 347)
2(348 349)
2(350 351)
2(352 353)
2(354 355)
2(356 357)
2(358 359)
2(360 361)
2(362 363)
2(364 365)
2(366 367)
2(368 369)
2(370 371)
2(372 373)
2(374 375)
2(376 377)
2(378 379)
2(380 381)
2(382 383)
2(384 385)
2(386 387)
2(388 389)
2(390 391)
2(392 393)
2(394 395)
2(396 397)
2(398 399)
2(400 401)
2(402 403)
)

// featurePointNormals
0()
// featurePointEdges
0()
// regionEdges
0()


// ************************************************************************* //
