/*--------------------------------*- C++ -*----------------------------------*\
  =========                 |
  \\      /  F ield         | OpenFOAM: The Open Source CFD Toolbox
   \\    /   O peration     | Website:  https://openfoam.org
    \\  /    A nd           | Version:  7
     \\/     M anipulation  |
\*---------------------------------------------------------------------------*/
FoamFile
{
    version     2.0;
    format      ascii;
    class       extendedFeatureEdgeMesh;
    location    "constant/extendedFeatureEdgeMesh";
    object      PH.extendedFeatureEdgeMesh;
}
// * * * * * * * * * * * * * * * * * * * * * * * * * * * * * * * * * * * * * //

// points

65
(
(0.0266713 0.00968885 0.140307)
(0.0264806 0.00914135 0.140307)
(0.0268083 0.0102522 0.140307)
(0.0268903 0.0108261 0.140307)
(0.0269165 0.0114053 0.140307)
(0.0268867 0.0119843 0.140307)
(0.0268011 0.0125577 0.140307)
(0.0266606 0.0131202 0.140307)
(0.0264665 0.0136665 0.140307)
(0.0262205 0.0141915 0.140307)
(0.025925 0.0146903 0.140307)
(0.0255828 0.0151583 0.140307)
(0.025197 0.015591 0.140307)
(0.0247712 0.0159845 0.140307)
(0.0243095 0.0163351 0.140307)
(0.023816 0.0166394 0.140307)
(0.0232955 0.0168948 0.140307)
(0.0227528 0.0170987 0.140307)
(0.0221929 0.0172492 0.140307)
(0.0216211 0.017345 0.140307)
(0.0210428 0.0173852 0.140307)
(0.0204632 0.0173694 0.140307)
(0.0198879 0.0172977 0.140307)
(0.0193222 0.0171709 0.140307)
(0.0187714 0.01699 0.140307)
(0.0182406 0.0167568 0.140307)
(0.0177348 0.0164734 0.140307)
(0.0172587 0.0161426 0.140307)
(0.0168167 0.0157674 0.140307)
(0.016413 0.0153512 0.140307)
(0.0160514 0.0148981 0.140307)
(0.0157352 0.0144121 0.140307)
(0.0154674 0.0138979 0.140307)
(0.0152505 0.0133603 0.140307)
(0.0150864 0.0128042 0.140307)
(0.0149768 0.0122349 0.140307)
(0.0149226 0.0116577 0.140307)
(0.0149245 0.0110779 0.140307)
(0.0149822 0.0105011 0.140307)
(0.0150954 0.00993246 0.140307)
(0.0152629 0.00937742 0.140307)
(0.0154832 0.00884115 0.140307)
(0.0157542 0.00832864 0.140307)
(0.0160735 0.00784468 0.140307)
(0.0164379 0.0073938 0.140307)
(0.0168442 0.00698019 0.140307)
(0.0172885 0.00660772 0.140307)
(0.0177666 0.00627987 0.140307)
(0.0182742 0.0059997 0.140307)
(0.0188064 0.00576983 0.140307)
(0.0193584 0.0055924 0.140307)
(0.0199249 0.00546906 0.140307)
(0.0205006 0.00540098 0.140307)
(0.0210802 0.00538878 0.140307)
(0.0216583 0.00543258 0.140307)
(0.0222295 0.00553198 0.140307)
(0.0227884 0.00568603 0.140307)
(0.0233299 0.00589331 0.140307)
(0.0238488 0.00615188 0.140307)
(0.0243403 0.00645932 0.140307)
(0.0247999 0.00681276 0.140307)
(0.0252232 0.00720892 0.140307)
(0.0256063 0.00764407 0.140307)
(0.0259456 0.00811417 0.140307)
(0.0262379 0.00861482 0.140307)
)

// edges

65
(
(0 1)
(2 0)
(3 2)
(4 3)
(5 4)
(6 5)
(7 6)
(8 7)
(9 8)
(10 9)
(11 10)
(12 11)
(13 12)
(14 13)
(15 14)
(16 15)
(17 16)
(18 17)
(19 18)
(20 19)
(21 20)
(22 21)
(23 22)
(24 23)
(25 24)
(26 25)
(27 26)
(28 27)
(29 28)
(30 29)
(31 30)
(32 31)
(33 32)
(34 33)
(35 34)
(36 35)
(37 36)
(38 37)
(39 38)
(40 39)
(41 40)
(42 41)
(43 42)
(44 43)
(45 44)
(46 45)
(47 46)
(48 47)
(49 48)
(50 49)
(51 50)
(52 51)
(53 52)
(54 53)
(55 54)
(56 55)
(57 56)
(58 57)
(59 58)
(60 59)
(61 60)
(62 61)
(63 62)
(64 63)
(1 64)
)

// concaveStart mixedStart nonFeatureStart
0 0 0
// internalStart flatStart openStart multipleStart
65 65 65 65
// normals

128
(
(0.944343 -0.328963 0.000574686)
(0 -0 1)
(0.971687 -0.236273 0.000575362)
(0.989952 -0.141403 0.000575411)
(0 0 1)
(0.998978 -0.0451909 0.000575195)
(0 0 1)
(0.998676 0.051437 0.000575352)
(0 0 1)
(0.98905 0.14758 0.00057519)
(0 0 1)
(0.970187 0.242355 0.000575053)
(0 0 1)
(0.942272 0.334848 0.000575285)
(0 0 1)
(0.905553 0.424232 0.000575188)
(0 0 1)
(0.860381 0.509651 0.000575325)
(0 0 1)
(0.807175 0.590312 0.000575369)
(0 0 1)
(0.746438 0.665455 0.000575378)
(0 0 1)
(0.678718 0.734398 0.000575695)
(0 0 1)
(0.604682 0.796467 0.000575038)
(0 0 1)
(0.524978 0.851116 0.00057506)
(0 0 1)
(0.440392 0.897805 0.000575099)
(0 0 1)
(0.351678 0.936121 0.000575626)
(0 0 1)
(0.259692 0.965691 0.000575577)
(0 0 1)
(0.165274 0.986247 0.000575216)
(0 0 1)
(0.0693231 0.997594 0.000575637)
(0 0 1)
(-0.0272859 0.999628 0.00057476)
(0 0 1)
(-0.123638 0.992327 0.000574813)
(0 0 1)
(-0.218832 0.975762 0.00057507)
(0 0 1)
(-0.311991 0.950085 0.000574672)
(0 0 1)
(-0.402238 0.915535 0.000575773)
(0 0 1)
(-0.488702 0.872451 0.000575403)
(0 0 1)
(-0.570627 0.821209 0.000575046)
(0 0 1)
(-0.64723 0.762295 0.000575099)
(0 0 1)
(-0.71778 0.69627 0.000575041)
(0 0 1)
(-0.781631 0.623741 0.000574781)
(0 0 1)
(-0.838177 0.545398 0.000574832)
(0 0 1)
(-0.886905 0.461952 0.000574819)
(0 0 1)
(-0.927346 0.374205 0.000574915)
(0 0 1)
(-0.959136 0.282944 0.000575194)
(-0.981965 0.189061 0.000575504)
(0 0 1)
(-0.995628 0.0934014 0.000575066)
(0 0 1)
(-0.999995 -0.00312282 0.000574997)
(0 -0 1)
(-0.995025 -0.0996278 0.000574964)
(0 -0 1)
(-0.980767 -0.195183 0.000575111)
(0 -0 1)
(-0.957345 -0.288946 0.000575306)
(0 -0 1)
(-0.924993 -0.379985 0.000575058)
(0 -0 1)
(-0.884 -0.467487 0.00057523)
(0 -0 1)
(-0.834754 -0.550623 0.00057493)
(0 -0 1)
(-0.777712 -0.628621 0.000574897)
(0 -0 1)
(-0.713416 -0.700741 0.000575273)
(0 -0 1)
(-0.642448 -0.766329 0.000575396)
(0 -0 1)
(-0.565491 -0.824754 0.000575061)
(0 -0 1)
(-0.483249 -0.875483 0.000575109)
(0 -0 1)
(-0.396499 -0.918035 0.000575173)
(0 -0 1)
(-0.306044 -0.952017 0.000574984)
(0 -0 1)
(-0.212733 -0.97711 0.000575021)
(0 -0 1)
(-0.117433 -0.993081 0.000575185)
(0 -0 1)
(-0.0210398 -0.999778 0.000575136)
(0 -0 1)
(0.0755495 -0.997142 0.00057518)
(0 -0 1)
(0.171438 -0.985195 0.000575238)
(0 -0 1)
(0.26572 -0.96405 0.000575327)
(0 -0 1)
(0.357526 -0.933903 0.000575293)
(0 -0 1)
(0.445987 -0.895039 0.000575219)
(0 -0 1)
(0.530293 -0.847814 0.000575133)
(0 -0 1)
(0.609644 -0.792675 0.000575035)
(0 -0 1)
(0.683296 -0.730141 0.000575053)
(0 -0 1)
(0.750583 -0.660776 0.000574894)
(0 -0 1)
(0.810847 -0.585258 0.000575423)
(0 -0 1)
(0.863552 -0.50426 0.000575377)
(0 -0 1)
(0.908186 -0.418567 0.000575271)
(0 -0 1)
)

// normal volume types

128
(
0
0
0
0
0
0
0
0
0
0
0
0
0
0
0
0
0
0
0
0
0
0
0
0
0
0
0
0
0
0
0
0
0
0
0
0
0
0
0
0
0
0
0
0
0
0
0
0
0
0
0
0
0
0
0
0
0
0
0
0
0
0
0
0
0
0
0
0
0
0
0
0
0
0
0
0
0
0
0
0
0
0
0
0
0
0
0
0
0
0
0
0
0
0
0
0
0
0
0
0
0
0
0
0
0
0
0
0
0
0
0
0
0
0
0
0
0
0
0
0
0
0
0
0
0
0
0
0
)

// normalDirections

65
(
2(1 -1)
2(1 -1)
2(1 -1)
2(1 -1)
2(1 -1)
2(1 -1)
2(1 -1)
2(1 -1)
2(1 -1)
2(1 -1)
2(1 -1)
2(1 -1)
2(1 -1)
2(1 -1)
2(1 -1)
2(1 -1)
2(1 -1)
2(1 -1)
2(1 -1)
2(1 -1)
2(1 -1)
2(1 -1)
2(1 -1)
2(1 -1)
2(1 -1)
2(1 -1)
2(1 -1)
2(1 -1)
2(1 -1)
2(1 -1)
2(1 -1)
2(1 -1)
2(1 -1)
2(1 -1)
2(1 -1)
2(1 -1)
2(1 -1)
2(1 -1)
2(1 -1)
2(1 -1)
2(1 -1)
2(1 -1)
2(1 -1)
2(1 -1)
2(1 -1)
2(1 -1)
2(1 -1)
2(1 -1)
2(1 -1)
2(1 -1)
2(1 -1)
2(1 -1)
2(1 -1)
2(1 -1)
2(1 -1)
2(1 -1)
2(1 -1)
2(1 -1)
2(1 -1)
2(1 -1)
2(1 -1)
2(1 -1)
2(1 -1)
2(1 -1)
2(1 -1)
)

// edgeNormals

65
(
2(0 1)
2(2 1)
2(3 4)
2(5 6)
2(7 8)
2(9 10)
2(11 12)
2(13 14)
2(15 16)
2(17 18)
2(19 20)
2(21 22)
2(23 24)
2(25 26)
2(27 28)
2(29 30)
2(31 32)
2(33 34)
2(35 36)
2(37 38)
2(39 40)
2(41 42)
2(43 44)
2(45 46)
2(47 48)
2(49 50)
2(51 52)
2(53 54)
2(55 56)
2(57 58)
2(59 60)
2(61 62)
2(63 64)
2(65 64)
2(66 67)
2(68 69)
2(70 71)
2(72 73)
2(74 75)
2(76 77)
2(78 79)
2(80 81)
2(82 83)
2(84 85)
2(86 87)
2(88 89)
2(90 91)
2(92 93)
2(94 95)
2(96 97)
2(98 99)
2(100 101)
2(102 103)
2(104 105)
2(106 107)
2(108 109)
2(110 111)
2(112 113)
2(114 115)
2(116 117)
2(118 119)
2(120 121)
2(122 123)
2(124 125)
2(126 127)
)

// featurePointNormals
0()
// featurePointEdges
0()
// regionEdges
0()


// ************************************************************************* //
