/*--------------------------------*- C++ -*----------------------------------*\
  =========                 |
  \\      /  F ield         | OpenFOAM: The Open Source CFD Toolbox
   \\    /   O peration     | Website:  https://openfoam.org
    \\  /    A nd           | Version:  7
     \\/     M anipulation  |
\*---------------------------------------------------------------------------*/
FoamFile
{
    version     2.0;
    format      ascii;
    class       extendedFeatureEdgeMesh;
    location    "constant/extendedFeatureEdgeMesh";
    object      PNR.extendedFeatureEdgeMesh;
}
// * * * * * * * * * * * * * * * * * * * * * * * * * * * * * * * * * * * * * //

// points

166
(
(-0.00958186 -0.0223226 0.00980673)
(-0.00949731 -0.0219445 0.00980673)
(-0.00936312 -0.0215811 0.00980673)
(-0.00961527 -0.0227085 0.00980673)
(-0.00918169 -0.0212388 0.00980673)
(-0.00959693 -0.0230955 0.00980673)
(-0.00895626 -0.0209238 0.00980673)
(-0.00952719 -0.0234766 0.00980673)
(-0.00869085 -0.0206416 0.00980673)
(-0.00940727 -0.0238449 0.00980673)
(-0.00839019 -0.0203973 0.00980673)
(-0.00923932 -0.024194 0.00980673)
(-0.00805965 -0.0201952 0.00980673)
(-0.00902635 -0.0245176 0.00980673)
(-0.00770514 -0.020039 0.00980673)
(-0.00877214 -0.0248099 0.00980673)
(-0.00733297 -0.0199315 0.00980673)
(-0.00848123 -0.0250658 0.00980673)
(-0.00694978 -0.0198745 0.00980673)
(-0.00815883 -0.0252806 0.00980673)
(-0.00656242 -0.0198691 0.00980673)
(-0.00781067 -0.0254504 0.00980673)
(-0.0061778 -0.0199154 0.00980673)
(-0.00744297 -0.0255724 0.00980673)
(-0.00580278 -0.0200125 0.00980673)
(-0.0070623 -0.0256443 0.00980673)
(-0.00544405 -0.0201588 0.00980673)
(-0.00667544 -0.0256648 0.00980673)
(-0.00510802 -0.0203516 0.00980673)
(-0.00628931 -0.0256335 0.00980673)
(-0.00480067 -0.0205874 0.00980673)
(-0.00591079 -0.0255511 0.00980673)
(-0.00452751 -0.0208621 0.00980673)
(-0.00554663 -0.0254189 0.00980673)
(-0.00429339 -0.0211707 0.00980673)
(-0.00520334 -0.0252394 0.00980673)
(-0.0041025 -0.0215078 0.00980673)
(-0.00488703 -0.0250157 0.00980673)
(-0.00395825 -0.0218674 0.00980673)
(-0.00460336 -0.0247519 0.00980673)
(-0.00386321 -0.0222429 0.00980673)
(-0.00435739 -0.0244526 0.00980673)
(-0.00381907 -0.0226278 0.00980673)
(-0.00415351 -0.0241232 0.00980673)
(-0.00382662 -0.0230151 0.00980673)
(-0.00399535 -0.0237696 0.00980673)
(-0.00388573 -0.023398 0.00980673)
(-0.00537303 -0.0231612 0.140307)
(-0.00532464 -0.022922 0.140307)
(-0.00546222 -0.0233884 0.140307)
(-0.00558949 -0.0235966 0.140307)
(-0.00575099 -0.0237795 0.140307)
(-0.00594181 -0.0239316 0.140307)
(-0.00615614 -0.0240483 0.140307)
(-0.00638748 -0.024126 0.140307)
(-0.0066288 -0.0241624 0.140307)
(-0.00687276 -0.0241562 0.140307)
(-0.00711195 -0.0241078 0.140307)
(-0.0073391 -0.0240187 0.140307)
(-0.00754732 -0.0238914 0.140307)
(-0.00773027 -0.0237299 0.140307)
(-0.0078824 -0.0235391 0.140307)
(-0.00799908 -0.0233247 0.140307)
(-0.00807677 -0.0230934 0.140307)
(-0.00811311 -0.0228521 0.140307)
(-0.00810699 -0.0226081 0.140307)
(-0.00805861 -0.0223689 0.140307)
(-0.00796942 -0.0221418 0.140307)
(-0.00784214 -0.0219336 0.140307)
(-0.00768064 -0.0217506 0.140307)
(-0.00748983 -0.0215985 0.140307)
(-0.00727549 -0.0214818 0.140307)
(-0.00704415 -0.0214041 0.140307)
(-0.00680284 -0.0213678 0.140307)
(-0.00655888 -0.0213739 0.140307)
(-0.00631969 -0.0214223 0.140307)
(-0.00609253 -0.0215115 0.140307)
(-0.00588432 -0.0216387 0.140307)
(-0.00570136 -0.0218002 0.140307)
(-0.00554924 -0.021991 0.140307)
(-0.00543255 -0.0222054 0.140307)
(-0.00535486 -0.0224367 0.140307)
(-0.00531852 -0.022678 0.140307)
(-0.00393433 -0.0235856 0.140307)
(-0.00406851 -0.023949 0.140307)
(-0.00384978 -0.0232076 0.140307)
(-0.00381637 -0.0228216 0.140307)
(-0.0038347 -0.0224346 0.140307)
(-0.00390445 -0.0220536 0.140307)
(-0.00402437 -0.0216852 0.140307)
(-0.00419231 -0.0213361 0.140307)
(-0.00440529 -0.0210125 0.140307)
(-0.0046595 -0.0207202 0.140307)
(-0.0049504 -0.0204643 0.140307)
(-0.00527281 -0.0202496 0.140307)
(-0.00562097 -0.0200797 0.140307)
(-0.00598866 -0.0199577 0.140307)
(-0.00636934 -0.0198858 0.140307)
(-0.00675619 -0.0198653 0.140307)
(-0.00714233 -0.0198966 0.140307)
(-0.00752085 -0.019979 0.140307)
(-0.00788501 -0.0201112 0.140307)
(-0.0082283 -0.0202907 0.140307)
(-0.0085446 -0.0205144 0.140307)
(-0.00882827 -0.0207782 0.140307)
(-0.00907424 -0.0210775 0.140307)
(-0.00927813 -0.0214069 0.140307)
(-0.00943629 -0.0217606 0.140307)
(-0.0095459 -0.0221321 0.140307)
(-0.00960501 -0.022515 0.140307)
(-0.00961257 -0.0229023 0.140307)
(-0.00956843 -0.0232872 0.140307)
(-0.00947339 -0.0236627 0.140307)
(-0.00932913 -0.0240223 0.140307)
(-0.00913824 -0.0243594 0.140307)
(-0.00890413 -0.024668 0.140307)
(-0.00863096 -0.0249427 0.140307)
(-0.00832362 -0.0251786 0.140307)
(-0.00798759 -0.0253713 0.140307)
(-0.00762886 -0.0255176 0.140307)
(-0.00725384 -0.0256147 0.140307)
(-0.00686921 -0.025661 0.140307)
(-0.00648185 -0.0256556 0.140307)
(-0.00609867 -0.0255986 0.140307)
(-0.0057265 -0.0254911 0.140307)
(-0.00537198 -0.0253349 0.140307)
(-0.00504144 -0.0251329 0.140307)
(-0.00474079 -0.0248886 0.140307)
(-0.00447538 -0.0246064 0.140307)
(-0.00424994 -0.0242913 0.140307)
(-0.00796942 -0.0221418 0.0198067)
(-0.00805861 -0.0223689 0.0198067)
(-0.00810699 -0.0226081 0.0198067)
(-0.00784214 -0.0219336 0.0198067)
(-0.00811311 -0.0228521 0.0198067)
(-0.00768064 -0.0217506 0.0198067)
(-0.00807677 -0.0230934 0.0198067)
(-0.00748983 -0.0215985 0.0198067)
(-0.00799908 -0.0233247 0.0198067)
(-0.00727549 -0.0214818 0.0198067)
(-0.0078824 -0.0235391 0.0198067)
(-0.00704415 -0.0214041 0.0198067)
(-0.00773027 -0.0237299 0.0198067)
(-0.00680284 -0.0213678 0.0198067)
(-0.00754732 -0.0238914 0.0198067)
(-0.00655888 -0.0213739 0.0198067)
(-0.0073391 -0.0240187 0.0198067)
(-0.00631969 -0.0214223 0.0198067)
(-0.00711195 -0.0241078 0.0198067)
(-0.00609253 -0.0215115 0.0198067)
(-0.00687276 -0.0241562 0.0198067)
(-0.00588432 -0.0216387 0.0198067)
(-0.0066288 -0.0241624 0.0198067)
(-0.00570136 -0.0218002 0.0198067)
(-0.00638748 -0.024126 0.0198067)
(-0.00554924 -0.021991 0.0198067)
(-0.00615614 -0.0240483 0.0198067)
(-0.00543255 -0.0222054 0.0198067)
(-0.00594181 -0.0239316 0.0198067)
(-0.00535486 -0.0224367 0.0198067)
(-0.00575099 -0.0237795 0.0198067)
(-0.00531852 -0.022678 0.0198067)
(-0.00558949 -0.0235966 0.0198067)
(-0.00532464 -0.022922 0.0198067)
(-0.00546222 -0.0233884 0.0198067)
(-0.00537303 -0.0231612 0.0198067)
)

// edges

166
(
(0 1)
(1 2)
(3 0)
(2 4)
(5 3)
(4 6)
(7 5)
(6 8)
(9 7)
(8 10)
(11 9)
(10 12)
(13 11)
(12 14)
(15 13)
(14 16)
(17 15)
(16 18)
(19 17)
(18 20)
(21 19)
(20 22)
(23 21)
(22 24)
(25 23)
(24 26)
(27 25)
(26 28)
(29 27)
(28 30)
(31 29)
(30 32)
(33 31)
(32 34)
(35 33)
(34 36)
(37 35)
(36 38)
(39 37)
(38 40)
(41 39)
(40 42)
(43 41)
(42 44)
(45 43)
(44 46)
(46 45)
(47 48)
(49 47)
(50 49)
(51 50)
(52 51)
(53 52)
(54 53)
(55 54)
(56 55)
(57 56)
(58 57)
(59 58)
(60 59)
(61 60)
(62 61)
(63 62)
(64 63)
(65 64)
(66 65)
(67 66)
(68 67)
(69 68)
(70 69)
(71 70)
(72 71)
(73 72)
(74 73)
(75 74)
(76 75)
(77 76)
(78 77)
(79 78)
(80 79)
(81 80)
(82 81)
(48 82)
(83 84)
(85 83)
(86 85)
(87 86)
(88 87)
(89 88)
(90 89)
(91 90)
(92 91)
(93 92)
(94 93)
(95 94)
(96 95)
(97 96)
(98 97)
(99 98)
(100 99)
(101 100)
(102 101)
(103 102)
(104 103)
(105 104)
(106 105)
(107 106)
(108 107)
(109 108)
(110 109)
(111 110)
(112 111)
(113 112)
(114 113)
(115 114)
(116 115)
(117 116)
(118 117)
(119 118)
(120 119)
(121 120)
(122 121)
(123 122)
(124 123)
(125 124)
(126 125)
(127 126)
(128 127)
(129 128)
(84 129)
(130 131)
(131 132)
(133 130)
(132 134)
(135 133)
(134 136)
(137 135)
(136 138)
(139 137)
(138 140)
(141 139)
(140 142)
(143 141)
(142 144)
(145 143)
(144 146)
(147 145)
(146 148)
(149 147)
(148 150)
(151 149)
(150 152)
(153 151)
(152 154)
(155 153)
(154 156)
(157 155)
(156 158)
(159 157)
(158 160)
(161 159)
(160 162)
(163 161)
(162 164)
(164 165)
(165 163)
)

// concaveStart mixedStart nonFeatureStart
0 0 0
// internalStart flatStart openStart multipleStart
130 166 166 166
// normals

328
(
(0 -0 -1)
(-0.97589 0.218261 0)
(-0.938096 0.346376 0)
(0 -0 -1)
(-0.996275 0.0862295 0)
(0 0 -1)
(-0.883557 0.468324 0)
(0 0 -1)
(-0.998879 -0.0473267 0)
(0 0 -1)
(-0.813249 0.581916 0)
(0 0 -1)
(-0.98366 -0.180037 0)
(0 0 -1)
(-0.72843 0.685121 0)
(0 0 -1)
(-0.950885 -0.309544 0)
(0 0 -1)
(-0.630616 0.776095 0)
(0 0 -1)
(-0.901143 -0.433522 0)
(0 0 -1)
(-0.521537 0.853228 0)
(0 0 -1)
(-0.835318 -0.549767 0)
(0 0 -1)
(-0.403177 0.915122 0)
(0 0 -1)
(-0.754593 -0.656193 0)
(0 0 -1)
(-0.277596 0.960698 0)
(0 0 -1)
(-0.660389 -0.750924 0)
(0 0 -1)
(-0.147084 0.989124 0)
(0 0 -1)
(-0.554416 -0.83224 0)
(0 0 -1)
(-0.0139098 0.999903 0)
(0 0 -1)
(-0.438542 -0.898711 0)
(0 0 -1)
(0.119486 0.992836 -0)
(0 0 -1)
(-0.314844 -0.949144 0)
(0 0 -1)
(0.250729 0.968057 -0)
(0 0 -1)
(-0.185521 -0.98264 0)
(0 0 -1)
(0.377541 0.925993 -0)
(0 0 -1)
(-0.0528939 -0.9986 0)
(0 0 -1)
(0.497583 0.867416 -0)
(0 0 -1)
(0.0806654 -0.996741 0)
(0 0 -1)
(0.608773 0.793345 -0)
(0 0 -1)
(0.21283 -0.977089 0)
(0 0 -1)
(0.709069 0.705139 -0)
(0 0 -1)
(0.341127 -0.940017 0)
(0 0 -1)
(0.796731 0.604334 -0)
(0 0 -1)
(0.463399 -0.88615 0)
(0 0 -1)
(0.87018 0.492734 -0)
(0 0 -1)
(0.577367 -0.816484 0)
(0 0 -1)
(0.928083 0.372372 -0)
(0 0 -1)
(0.681051 -0.732236 0)
(0 0 -1)
(0.969437 0.245341 -0)
(0 0 -1)
(0.772567 -0.634934 0)
(0 0 -1)
(0.993488 0.113935 -0)
(0 0 -1)
(0.850297 -0.526303 0)
(0 0 -1)
(0.99981 -0.019497 0)
(0 0 -1)
(0.912864 -0.408264 0)
(0 0 -1)
(0.98829 -0.152585 0)
(0.959135 -0.282949 0)
(-0.980146 0.198279 0)
(-0 0 1)
(-0.930828 0.365459 0)
(-0 0 1)
(-0.853212 0.521564 0)
(-0 0 1)
(-0.749686 0.661793 0)
(-0 0 1)
(-0.623389 0.781912 0)
(-0 0 1)
(-0.478127 0.878291 0)
(-0 0 1)
(-0.318392 0.947959 0)
(-0 0 1)
(-0.148876 0.988856 0)
(-0 0 1)
(0.0250351 0.999687 0)
(0 0 1)
(0.198296 0.980142 0)
(0 0 1)
(0.365474 0.930821 0)
(0 0 1)
(0.521531 0.853232 0)
(0 0 1)
(0.661786 0.749692 0)
(0 0 1)
(0.781922 0.623376 0)
(0 0 1)
(0.878283 0.478141 0)
(0 0 1)
(0.94797 0.318359 0)
(0 0 1)
(0.988851 0.148906 0)
(0 0 1)
(0.999686 -0.0250732 0)
(0 0 1)
(0.980146 -0.198279 0)
(0 0 1)
(0.930821 -0.365474 0)
(0 0 1)
(0.853227 -0.52154 0)
(0 0 1)
(0.749686 -0.661793 0)
(0 0 1)
(0.623387 -0.781913 0)
(0 0 1)
(0.478127 -0.878291 0)
(0 0 1)
(0.318358 -0.94797 0)
(0 0 1)
(0.148913 -0.98885 0)
(0 0 1)
(-0.025081 -0.999685 -0)
(0 0 1)
(-0.198252 -0.980151 -0)
(0 -0 1)
(-0.365473 -0.930822 -0)
(0 -0 1)
(-0.521558 -0.853216 -0)
(0 -0 1)
(-0.661791 -0.749689 -0)
(0 -0 1)
(-0.781907 -0.623396 -0)
(0 -0 1)
(-0.878291 -0.478126 -0)
(0 -0 1)
(-0.947972 -0.318353 -0)
(0 -0 1)
(-0.98885 -0.148913 -0)
(0 -0 1)
(-0.999686 0.0250675 0)
(0 0 1)
(0.938093 -0.346383 0.000794031)
(0 -0 1)
(0.975892 -0.218253 0.000793997)
(0 0 1)
(0.996275 -0.086233 0.000794079)
(-0 0 1)
(0.998879 0.0473266 0.000793992)
(-0 0 1)
(0.983659 0.180038 0.00079405)
(0 0 1)
(0.950884 0.309545 0.000793974)
(0 0 1)
(0.901143 0.433521 0.000793535)
(0 0 1)
(0.835317 0.549767 0.000794039)
(0 0 1)
(0.754583 0.656204 0.000794116)
(0 0 1)
(0.660402 0.750912 0.000793715)
(0 0 1)
(0.554416 0.832239 0.000793954)
(0 0 1)
(0.438542 0.89871 0.000793567)
(0 0 1)
(0.314822 0.94915 0.00079433)
(0 0 1)
(0.185544 0.982636 0.000793673)
(0 0 1)
(0.0528939 0.9986 0.000793676)
(0 -0 1)
(-0.0806942 0.996739 0.000794693)
(0 -0 1)
(-0.212802 0.977095 0.000794319)
(0 0 1)
(-0.341148 0.940009 0.000794268)
(0 0 1)
(-0.46338 0.886159 0.00079359)
(0 0 1)
(-0.577383 0.816473 0.000794157)
(0 0 1)
(-0.681038 0.732247 0.000794261)
(0 0 1)
(-0.772567 0.634933 0.000794249)
(0 0 1)
(-0.850305 0.526289 0.000794526)
(0 0 1)
(-0.912863 0.408266 0.000794413)
(0 0 1)
(-0.959133 0.282955 0.000793928)
(0 0 1)
(-0.98829 0.152585 0.00079413)
(0 0 1)
(-0.99981 0.0194965 0.000793968)
(0 0 1)
(-0.993487 -0.113939 0.000793911)
(0 0 1)
(-0.969438 -0.245337 0.000794022)
(0 0 1)
(-0.928086 -0.372365 0.000793944)
(0 0 1)
(-0.870173 -0.492746 0.000793999)
(0 0 1)
(-0.796731 -0.604334 0.000794038)
(0 0 1)
(-0.709082 -0.705125 0.000794177)
(0 0 1)
(-0.608756 -0.793357 0.000793791)
(0 0 1)
(-0.497583 -0.867416 0.000794263)
(0 0 1)
(-0.377541 -0.925993 0.000794332)
(0 0 1)
(-0.250751 -0.968051 0.000794075)
(0 0 1)
(-0.119462 -0.992838 0.000794033)
(0 0 1)
(0.0139098 -0.999903 0.000794011)
(0 0 1)
(0.147085 -0.989124 0.000794579)
(0 0 1)
(0.277596 -0.960698 0.000793874)
(0 0 1)
(0.403157 -0.915131 0.000794401)
(0 0 1)
(0.521555 -0.853217 0.000793998)
(0 0 1)
(0.630616 -0.776095 0.000794384)
(0 0 1)
(0.728431 -0.685119 0.000793908)
(0 0 1)
(0.813249 -0.581916 0.000793822)
(0 0 1)
(0.883556 -0.468326 0.000794195)
(0 0 1)
(-0 0 1)
(0.930821 -0.365474 0)
(0.980146 -0.198279 0)
(-0 0 1)
(0.853227 -0.52154 0)
(0 0 1)
(0.999686 -0.0250732 0)
(-0 0 1)
(0.749686 -0.661793 0)
(0 0 1)
(0.988851 0.148906 -0)
(-0 0 1)
(0.623387 -0.781913 0)
(0 0 1)
(0.94797 0.318359 -0)
(-0 0 1)
(0.478127 -0.878291 0)
(0 0 1)
(0.878283 0.478141 -0)
(-0 0 1)
(0.318358 -0.94797 0)
(0 0 1)
(0.781922 0.623376 -0)
(-0 0 1)
(0.148913 -0.98885 0)
(0 0 1)
(0.661786 0.749692 -0)
(0 0 1)
(-0.025081 -0.999685 0)
(0 0 1)
(0.521531 0.853232 -0)
(0 0 1)
(-0.198252 -0.980151 0)
(0 0 1)
(0.365474 0.930821 -0)
(0 0 1)
(-0.365473 -0.930822 0)
(0 0 1)
(0.198296 0.980142 -0)
(0 0 1)
(-0.521558 -0.853216 0)
(0 0 1)
(0.0250351 0.999687 -0)
(0 0 1)
(-0.661791 -0.749689 0)
(0 0 1)
(-0.148876 0.988856 0)
(0 0 1)
(-0.781907 -0.623396 0)
(0 0 1)
(-0.318392 0.947959 0)
(0 0 1)
(-0.878291 -0.478126 0)
(0 0 1)
(-0.478127 0.878291 0)
(0 0 1)
(-0.947972 -0.318353 0)
(0 0 1)
(-0.623389 0.781912 0)
(0 0 1)
(-0.98885 -0.148913 0)
(0 0 1)
(-0.749686 0.661793 0)
(0 0 1)
(-0.999686 0.0250675 0)
(0 0 1)
(-0.853212 0.521564 0)
(0 0 1)
(-0.930828 0.365459 0)
(-0.980146 0.198279 0)
)

// normal volume types

328
(
0
0
0
0
0
0
0
0
0
0
0
0
0
0
0
0
0
0
0
0
0
0
0
0
0
0
0
0
0
0
0
0
0
0
0
0
0
0
0
0
0
0
0
0
0
0
0
0
0
0
0
0
0
0
0
0
0
0
0
0
0
0
0
0
0
0
0
0
0
0
0
0
0
0
0
0
0
0
0
0
0
0
0
0
0
0
0
0
0
0
0
0
0
0
0
0
0
0
0
0
0
0
0
0
0
0
0
0
0
0
0
0
0
0
0
0
0
0
0
0
0
0
0
0
0
0
0
0
0
0
0
0
0
0
0
0
0
0
0
0
0
0
0
0
0
0
0
0
0
0
0
0
0
0
0
0
0
0
0
0
0
0
0
0
0
0
0
0
0
0
0
0
0
0
0
0
0
0
0
0
0
0
0
0
0
0
0
0
0
0
0
0
0
0
0
0
0
0
0
0
0
0
0
0
0
0
0
0
0
0
0
0
0
0
0
0
0
0
0
0
0
0
0
0
0
0
0
0
0
0
0
0
0
0
0
0
0
0
0
0
0
0
0
0
0
0
0
0
0
0
0
0
0
0
0
0
0
0
0
0
0
0
0
0
0
0
0
0
0
0
0
0
0
0
0
0
0
0
0
0
0
0
0
0
0
0
0
0
0
0
0
0
0
0
0
0
0
0
0
0
0
0
0
0
0
0
0
0
0
0
0
0
0
0
0
0
0
0
0
0
0
0
0
0
0
0
0
0
)

// normalDirections

166
(
2(1 -1)
2(1 -1)
2(1 -1)
2(1 -1)
2(1 -1)
2(1 -1)
2(1 -1)
2(1 -1)
2(1 -1)
2(1 -1)
2(1 -1)
2(1 -1)
2(1 -1)
2(1 -1)
2(1 -1)
2(1 -1)
2(1 -1)
2(1 -1)
2(1 -1)
2(1 -1)
2(1 -1)
2(1 -1)
2(1 -1)
2(1 -1)
2(1 -1)
2(1 -1)
2(1 -1)
2(1 -1)
2(1 -1)
2(1 -1)
2(1 -1)
2(1 -1)
2(1 -1)
2(1 -1)
2(1 -1)
2(1 -1)
2(1 -1)
2(1 -1)
2(1 -1)
2(1 -1)
2(1 -1)
2(1 -1)
2(1 -1)
2(1 -1)
2(1 -1)
2(1 -1)
2(1 -1)
2(1 -1)
2(1 -1)
2(1 -1)
2(1 -1)
2(1 -1)
2(1 -1)
2(1 -1)
2(1 -1)
2(1 -1)
2(1 -1)
2(1 -1)
2(1 -1)
2(1 -1)
2(1 -1)
2(1 -1)
2(1 -1)
2(1 -1)
2(1 -1)
2(1 -1)
2(1 -1)
2(1 -1)
2(1 -1)
2(1 -1)
2(1 -1)
2(1 -1)
2(1 -1)
2(1 -1)
2(1 -1)
2(1 -1)
2(1 -1)
2(1 -1)
2(1 -1)
2(1 -1)
2(1 -1)
2(1 -1)
2(1 -1)
2(1 -1)
2(1 -1)
2(1 -1)
2(1 -1)
2(1 -1)
2(1 -1)
2(1 -1)
2(1 -1)
2(1 -1)
2(1 -1)
2(1 -1)
2(1 -1)
2(1 -1)
2(1 -1)
2(1 -1)
2(1 -1)
2(1 -1)
2(1 -1)
2(1 -1)
2(1 -1)
2(1 -1)
2(1 -1)
2(1 -1)
2(1 -1)
2(1 -1)
2(1 -1)
2(1 -1)
2(1 -1)
2(1 -1)
2(1 -1)
2(1 -1)
2(1 -1)
2(1 -1)
2(1 -1)
2(1 -1)
2(1 -1)
2(1 -1)
2(1 -1)
2(1 -1)
2(1 -1)
2(1 -1)
2(1 -1)
2(1 -1)
2(1 -1)
2(1 -1)
2(1 -1)
2(1 -1)
2(1 -1)
2(1 -1)
2(1 -1)
2(1 -1)
2(1 -1)
2(1 -1)
2(1 -1)
2(1 -1)
2(1 -1)
2(1 -1)
2(1 -1)
2(1 -1)
2(1 -1)
2(1 -1)
2(1 -1)
2(1 -1)
2(1 -1)
2(1 -1)
2(1 -1)
2(1 -1)
2(1 -1)
2(1 -1)
2(1 -1)
2(1 -1)
2(1 -1)
2(1 -1)
2(1 -1)
2(1 -1)
2(1 -1)
2(1 -1)
2(1 -1)
2(1 -1)
2(1 -1)
2(1 -1)
2(1 -1)
2(1 -1)
)

// edgeNormals

166
(
2(0 1)
2(0 2)
2(3 4)
2(5 6)
2(7 8)
2(9 10)
2(11 12)
2(13 14)
2(15 16)
2(17 18)
2(19 20)
2(21 22)
2(23 24)
2(25 26)
2(27 28)
2(29 30)
2(31 32)
2(33 34)
2(35 36)
2(37 38)
2(39 40)
2(41 42)
2(43 44)
2(45 46)
2(47 48)
2(49 50)
2(51 52)
2(53 54)
2(55 56)
2(57 58)
2(59 60)
2(61 62)
2(63 64)
2(65 66)
2(67 68)
2(69 70)
2(71 72)
2(73 74)
2(75 76)
2(77 78)
2(79 80)
2(81 82)
2(83 84)
2(85 86)
2(87 88)
2(89 90)
2(89 91)
2(92 93)
2(94 95)
2(96 97)
2(98 99)
2(100 101)
2(102 103)
2(104 105)
2(106 107)
2(108 109)
2(110 111)
2(112 113)
2(114 115)
2(116 117)
2(118 119)
2(120 121)
2(122 123)
2(124 125)
2(126 127)
2(128 129)
2(130 131)
2(132 133)
2(134 135)
2(136 137)
2(138 139)
2(140 141)
2(142 143)
2(144 145)
2(146 147)
2(148 149)
2(150 151)
2(152 153)
2(154 155)
2(156 157)
2(158 159)
2(160 161)
2(162 163)
2(164 165)
2(166 167)
2(168 169)
2(170 171)
2(172 173)
2(174 175)
2(176 177)
2(178 179)
2(180 181)
2(182 183)
2(184 185)
2(186 187)
2(188 189)
2(190 191)
2(192 193)
2(194 195)
2(196 197)
2(198 199)
2(200 201)
2(202 203)
2(204 205)
2(206 207)
2(208 209)
2(210 211)
2(212 213)
2(214 215)
2(216 217)
2(218 219)
2(220 221)
2(222 223)
2(224 225)
2(226 227)
2(228 229)
2(230 231)
2(232 233)
2(234 235)
2(236 237)
2(238 239)
2(240 241)
2(242 243)
2(244 245)
2(246 247)
2(248 249)
2(250 251)
2(252 253)
2(254 255)
2(256 257)
2(258 259)
2(258 260)
2(261 262)
2(263 264)
2(265 266)
2(267 268)
2(269 270)
2(271 272)
2(273 274)
2(275 276)
2(277 278)
2(279 280)
2(281 282)
2(283 284)
2(285 286)
2(287 288)
2(289 290)
2(291 292)
2(293 294)
2(295 296)
2(297 298)
2(299 300)
2(301 302)
2(303 304)
2(305 306)
2(307 308)
2(309 310)
2(311 312)
2(313 314)
2(315 316)
2(317 318)
2(319 320)
2(321 322)
2(323 324)
2(325 326)
2(325 327)
)

// featurePointNormals
0()
// featurePointEdges
0()
// regionEdges
0()


// ************************************************************************* //
