/*--------------------------------*- C++ -*----------------------------------*\
  =========                 |
  \\      /  F ield         | OpenFOAM: The Open Source CFD Toolbox
   \\    /   O peration     | Website:  https://openfoam.org
    \\  /    A nd           | Version:  7
     \\/     M anipulation  |
\*---------------------------------------------------------------------------*/
FoamFile
{
    version     2.0;
    format      ascii;
    class       extendedFeatureEdgeMesh;
    location    "constant/extendedFeatureEdgeMesh";
    object      PT100.extendedFeatureEdgeMesh;
}
// * * * * * * * * * * * * * * * * * * * * * * * * * * * * * * * * * * * * * //

// points

271
(
(0.0101183 0.0233032 0.140307)
(0.0102565 0.0236806 0.140307)
(0.0103453 0.0240727 0.140307)
(0.00885415 0.024387 0.140307)
(0.00879828 0.0241108 0.140307)
(0.0103832 0.0244728 0.140307)
(0.00886121 0.0246687 0.140307)
(0.0103697 0.0248746 0.140307)
(0.00881925 0.0249474 0.140307)
(0.0103049 0.0252713 0.140307)
(0.0101899 0.0256565 0.140307)
(0.00872954 0.0252145 0.140307)
(0.0100266 0.0260238 0.140307)
(0.00859481 0.025462 0.140307)
(0.00981763 0.0263672 0.140307)
(0.00841915 0.0256823 0.140307)
(0.00956649 0.026681 0.140307)
(0.00927728 0.0269602 0.140307)
(0.00820789 0.0258688 0.140307)
(0.00895474 0.0272001 0.140307)
(0.00796747 0.0260158 0.140307)
(0.00860417 0.0273967 0.140307)
(0.00823134 0.027547 0.140307)
(0.00770517 0.0261187 0.140307)
(0.00784235 0.0276483 0.140307)
(0.00742898 0.0261746 0.140307)
(0.0074436 0.027699 0.140307)
(0.00714728 0.0261817 0.140307)
(0.00704163 0.0276984 0.140307)
(0.00664305 0.0276463 0.140307)
(0.00686863 0.0261397 0.140307)
(0.0062544 0.0275437 0.140307)
(0.00660151 0.02605 0.140307)
(0.00588205 0.0273923 0.140307)
(0.00635402 0.0259153 0.140307)
(0.00553214 0.0271944 0.140307)
(0.00521039 0.0269535 0.140307)
(0.00613368 0.0257396 0.140307)
(0.0049221 0.0266734 0.140307)
(0.0059472 0.0255284 0.140307)
(0.00467199 0.0263587 0.140307)
(0.00580023 0.0252879 0.140307)
(0.00446418 0.0260146 0.140307)
(0.00430208 0.0256468 0.140307)
(0.00569725 0.0250256 0.140307)
(0.00418834 0.0252612 0.140307)
(0.00564138 0.0247495 0.140307)
(0.00412484 0.0248643 0.140307)
(0.00411262 0.0244625 0.140307)
(0.00563431 0.0244677 0.140307)
(0.00415188 0.0240625 0.140307)
(0.00567627 0.0241891 0.140307)
(0.00424196 0.0236707 0.140307)
(0.00576598 0.023922 0.140307)
(0.00438141 0.0232937 0.140307)
(0.00456792 0.0229377 0.140307)
(0.00590072 0.0236745 0.140307)
(0.00479844 0.0226084 0.140307)
(0.00607638 0.0234542 0.140307)
(0.00506917 0.0223112 0.140307)
(0.00628763 0.0232677 0.140307)
(0.00537567 0.0220512 0.140307)
(0.00571292 0.0218324 0.140307)
(0.00652806 0.0231207 0.140307)
(0.00607536 0.0216586 0.140307)
(0.00679035 0.0230177 0.140307)
(0.00645706 0.0215326 0.140307)
(0.00706655 0.0229618 0.140307)
(0.00685174 0.0214564 0.140307)
(0.00725293 0.0214313 0.140307)
(0.00734825 0.0229548 0.140307)
(0.00765402 0.0214577 0.140307)
(0.00762689 0.0229967 0.140307)
(0.00804845 0.0215352 0.140307)
(0.00842973 0.0216625 0.140307)
(0.00789402 0.0230864 0.140307)
(0.0087916 0.0218375 0.140307)
(0.00814151 0.0232212 0.140307)
(0.00912813 0.0220574 0.140307)
(0.00836184 0.0233968 0.140307)
(0.00943377 0.0223184 0.140307)
(0.00970353 0.0226164 0.140307)
(0.00854833 0.0236081 0.140307)
(0.00993296 0.0229465 0.140307)
(0.00869529 0.0238485 0.140307)
(0.00879828 0.0241108 0.0286475)
(0.00869529 0.0238485 0.0286475)
(0.00885415 0.024387 0.0286475)
(0.00886121 0.0246687 0.0286475)
(0.00881925 0.0249474 0.0286475)
(0.00872954 0.0252145 0.0286475)
(0.00859481 0.025462 0.0286475)
(0.00841915 0.0256823 0.0286475)
(0.00820789 0.0258688 0.0286475)
(0.00796747 0.0260158 0.0286475)
(0.00770517 0.0261187 0.0286475)
(0.00742898 0.0261746 0.0286475)
(0.00714728 0.0261817 0.0286475)
(0.00686863 0.0261397 0.0286475)
(0.00660151 0.02605 0.0286475)
(0.00635402 0.0259153 0.0286475)
(0.00613368 0.0257396 0.0286475)
(0.0059472 0.0255284 0.0286475)
(0.00580023 0.0252879 0.0286475)
(0.00569725 0.0250256 0.0286475)
(0.00564138 0.0247495 0.0286475)
(0.00563431 0.0244677 0.0286475)
(0.00567627 0.0241891 0.0286475)
(0.00576598 0.023922 0.0286475)
(0.00590072 0.0236745 0.0286475)
(0.00607638 0.0234542 0.0286475)
(0.00628763 0.0232677 0.0286475)
(0.00652806 0.0231207 0.0286475)
(0.00679035 0.0230177 0.0286475)
(0.00706655 0.0229618 0.0286475)
(0.00734825 0.0229548 0.0286475)
(0.00762689 0.0229967 0.0286475)
(0.00789402 0.0230864 0.0286475)
(0.00814151 0.0232212 0.0286475)
(0.00836184 0.0233968 0.0286475)
(0.00854833 0.0236081 0.0286475)
(0.0111794 0.0234084 0.0301679)
(0.0110248 0.0229755 0.0301679)
(0.0112846 0.0238559 0.0301679)
(0.0113389 0.0243123 0.0301679)
(0.0113419 0.024772 0.0301679)
(0.0112933 0.0252291 0.0301679)
(0.0111939 0.0256779 0.0301679)
(0.0110448 0.0261128 0.0301679)
(0.010848 0.0265282 0.0301679)
(0.0106059 0.026919 0.0301679)
(0.0103216 0.0272802 0.0301679)
(0.00999865 0.0276073 0.0301679)
(0.00964108 0.0278962 0.0301679)
(0.00925342 0.0281432 0.0301679)
(0.00884054 0.0283453 0.0301679)
(0.00840763 0.0284999 0.0301679)
(0.00796013 0.028605 0.0301679)
(0.00750367 0.0286594 0.0301679)
(0.00704399 0.0286623 0.0301679)
(0.00658688 0.0286138 0.0301679)
(0.00613808 0.0285143 0.0301679)
(0.00570323 0.0283653 0.0301679)
(0.00528781 0.0281685 0.0301679)
(0.00489703 0.0279264 0.0301679)
(0.00453582 0.0276421 0.0301679)
(0.0042087 0.0273191 0.0301679)
(0.00391981 0.0269616 0.0301679)
(0.00367277 0.0265739 0.0301679)
(0.00347069 0.026161 0.0301679)
(0.0033161 0.0257281 0.0301679)
(0.00321096 0.0252806 0.0301679)
(0.00315658 0.0248241 0.0301679)
(0.00315366 0.0243645 0.0301679)
(0.00320222 0.0239074 0.0301679)
(0.00330165 0.0234585 0.0301679)
(0.00345071 0.0230237 0.0301679)
(0.00364751 0.0226083 0.0301679)
(0.0038896 0.0222175 0.0301679)
(0.00417391 0.0218563 0.0301679)
(0.00449688 0.0215292 0.0301679)
(0.00485444 0.0212403 0.0301679)
(0.00524211 0.0209932 0.0301679)
(0.00565499 0.0207912 0.0301679)
(0.0060879 0.0206366 0.0301679)
(0.0065354 0.0205314 0.0301679)
(0.00699186 0.0204771 0.0301679)
(0.00745154 0.0204741 0.0301679)
(0.00790865 0.0205227 0.0301679)
(0.00835745 0.0206221 0.0301679)
(0.0087923 0.0207712 0.0301679)
(0.00920772 0.020968 0.0301679)
(0.0095985 0.0212101 0.0301679)
(0.00995971 0.0214944 0.0301679)
(0.0102868 0.0218174 0.0301679)
(0.0105757 0.0221749 0.0301679)
(0.0108228 0.0225626 0.0301679)
(0.00979868 0.0241899 0.0286475)
(0.0097212 0.0238386 0.0286475)
(0.00959558 0.0235014 0.0286475)
(0.00982651 0.0245486 0.0286475)
(0.00980415 0.0249077 0.0286475)
(0.00973203 0.0252602 0.0286475)
(0.00961156 0.0255992 0.0286475)
(0.00944507 0.0259181 0.0286475)
(0.00923582 0.0262108 0.0286475)
(0.00898788 0.0264715 0.0286475)
(0.00870606 0.0266951 0.0286475)
(0.00839586 0.0268774 0.0286475)
(0.00806332 0.0270147 0.0286475)
(0.0077149 0.0271044 0.0286475)
(0.00735739 0.0271447 0.0286475)
(0.00699774 0.0271349 0.0286475)
(0.00664296 0.0270751 0.0286475)
(0.00629996 0.0269666 0.0286475)
(0.0059754 0.0268113 0.0286475)
(0.0056756 0.0266124 0.0286475)
(0.00540641 0.0263737 0.0286475)
(0.00517306 0.0260999 0.0286475)
(0.00498008 0.0257962 0.0286475)
(0.00483125 0.0254687 0.0286475)
(0.00472945 0.0251236 0.0286475)
(0.00467667 0.0247677 0.0286475)
(0.00467393 0.0244079 0.0286475)
(0.00472128 0.0240513 0.0286475)
(0.00481782 0.0237047 0.0286475)
(0.00496164 0.0233749 0.0286475)
(0.00514997 0.0230684 0.0286475)
(0.00537913 0.022791 0.0286475)
(0.00564465 0.0225482 0.0286475)
(0.00594138 0.0223448 0.0286475)
(0.00626354 0.0221846 0.0286475)
(0.00660485 0.0220708 0.0286475)
(0.00695868 0.0220057 0.0286475)
(0.00731813 0.0219904 0.0286475)
(0.00767622 0.0220252 0.0286475)
(0.00802596 0.0221096 0.0286475)
(0.00836056 0.0222419 0.0286475)
(0.0086735 0.0224194 0.0286475)
(0.00895869 0.0226387 0.0286475)
(0.00921058 0.0228956 0.0286475)
(0.00942426 0.0231851 0.0286475)
(0.0103453 0.0240727 0.0301679)
(0.0102565 0.0236806 0.0301679)
(0.0103832 0.0244728 0.0301679)
(0.0103697 0.0248746 0.0301679)
(0.0103049 0.0252713 0.0301679)
(0.0101899 0.0256565 0.0301679)
(0.0100266 0.0260238 0.0301679)
(0.00981763 0.0263672 0.0301679)
(0.00956649 0.026681 0.0301679)
(0.00927728 0.0269602 0.0301679)
(0.00895474 0.0272001 0.0301679)
(0.00860417 0.0273967 0.0301679)
(0.00823134 0.027547 0.0301679)
(0.00784235 0.0276483 0.0301679)
(0.0074436 0.027699 0.0301679)
(0.00704163 0.0276984 0.0301679)
(0.00664305 0.0276463 0.0301679)
(0.0062544 0.0275437 0.0301679)
(0.00588205 0.0273923 0.0301679)
(0.00553214 0.0271944 0.0301679)
(0.00521039 0.0269535 0.0301679)
(0.0049221 0.0266734 0.0301679)
(0.00467199 0.0263587 0.0301679)
(0.00446418 0.0260146 0.0301679)
(0.00430208 0.0256468 0.0301679)
(0.00418834 0.0252612 0.0301679)
(0.00412484 0.0248643 0.0301679)
(0.00411262 0.0244625 0.0301679)
(0.00415188 0.0240625 0.0301679)
(0.00424196 0.0236707 0.0301679)
(0.00438141 0.0232937 0.0301679)
(0.00456792 0.0229377 0.0301679)
(0.00479844 0.0226084 0.0301679)
(0.00506917 0.0223112 0.0301679)
(0.00537567 0.0220512 0.0301679)
(0.00571292 0.0218324 0.0301679)
(0.00607536 0.0216586 0.0301679)
(0.00645706 0.0215326 0.0301679)
(0.00685174 0.0214564 0.0301679)
(0.00725293 0.0214313 0.0301679)
(0.00765402 0.0214577 0.0301679)
(0.00804845 0.0215352 0.0301679)
(0.00842973 0.0216625 0.0301679)
(0.0087916 0.0218375 0.0301679)
(0.00912813 0.0220574 0.0301679)
(0.00943377 0.0223184 0.0301679)
(0.00970353 0.0226164 0.0301679)
(0.00993296 0.0229465 0.0301679)
(0.0101183 0.0233032 0.0301679)
)

// edges

271
(
(0 1)
(1 2)
(3 4)
(2 5)
(6 3)
(5 7)
(8 6)
(7 9)
(9 10)
(11 8)
(10 12)
(13 11)
(12 14)
(15 13)
(14 16)
(16 17)
(18 15)
(17 19)
(20 18)
(19 21)
(21 22)
(23 20)
(22 24)
(25 23)
(24 26)
(27 25)
(26 28)
(28 29)
(30 27)
(29 31)
(32 30)
(31 33)
(34 32)
(33 35)
(35 36)
(37 34)
(36 38)
(39 37)
(38 40)
(41 39)
(40 42)
(42 43)
(44 41)
(43 45)
(46 44)
(45 47)
(47 48)
(49 46)
(48 50)
(51 49)
(50 52)
(53 51)
(52 54)
(54 55)
(56 53)
(55 57)
(58 56)
(57 59)
(60 58)
(59 61)
(61 62)
(63 60)
(62 64)
(65 63)
(64 66)
(67 65)
(66 68)
(68 69)
(70 67)
(69 71)
(72 70)
(71 73)
(73 74)
(75 72)
(74 76)
(77 75)
(76 78)
(79 77)
(78 80)
(80 81)
(82 79)
(81 83)
(84 82)
(83 0)
(4 84)
(85 86)
(87 85)
(88 87)
(89 88)
(90 89)
(91 90)
(92 91)
(93 92)
(94 93)
(95 94)
(96 95)
(97 96)
(98 97)
(99 98)
(100 99)
(101 100)
(102 101)
(103 102)
(104 103)
(105 104)
(106 105)
(107 106)
(108 107)
(109 108)
(110 109)
(111 110)
(112 111)
(113 112)
(114 113)
(115 114)
(116 115)
(117 116)
(118 117)
(119 118)
(120 119)
(86 120)
(121 122)
(123 121)
(124 123)
(125 124)
(126 125)
(127 126)
(128 127)
(129 128)
(130 129)
(131 130)
(132 131)
(133 132)
(134 133)
(135 134)
(136 135)
(137 136)
(138 137)
(139 138)
(140 139)
(141 140)
(142 141)
(143 142)
(144 143)
(145 144)
(146 145)
(147 146)
(148 147)
(149 148)
(150 149)
(151 150)
(152 151)
(153 152)
(154 153)
(155 154)
(156 155)
(157 156)
(158 157)
(159 158)
(160 159)
(161 160)
(162 161)
(163 162)
(164 163)
(165 164)
(166 165)
(167 166)
(168 167)
(169 168)
(170 169)
(171 170)
(172 171)
(173 172)
(174 173)
(175 174)
(176 175)
(122 176)
(177 178)
(178 179)
(180 177)
(181 180)
(182 181)
(183 182)
(184 183)
(185 184)
(186 185)
(187 186)
(188 187)
(189 188)
(190 189)
(191 190)
(192 191)
(193 192)
(194 193)
(195 194)
(196 195)
(197 196)
(198 197)
(199 198)
(200 199)
(201 200)
(202 201)
(203 202)
(204 203)
(205 204)
(206 205)
(207 206)
(208 207)
(209 208)
(210 209)
(211 210)
(212 211)
(213 212)
(214 213)
(215 214)
(216 215)
(217 216)
(218 217)
(219 218)
(220 219)
(221 220)
(179 221)
(222 223)
(224 222)
(225 224)
(226 225)
(227 226)
(228 227)
(229 228)
(230 229)
(231 230)
(232 231)
(233 232)
(234 233)
(235 234)
(236 235)
(237 236)
(238 237)
(239 238)
(240 239)
(241 240)
(242 241)
(243 242)
(244 243)
(245 244)
(246 245)
(247 246)
(248 247)
(249 248)
(250 249)
(251 250)
(252 251)
(253 252)
(254 253)
(255 254)
(256 255)
(257 256)
(258 257)
(259 258)
(260 259)
(261 260)
(262 261)
(263 262)
(264 263)
(265 264)
(266 265)
(267 266)
(268 267)
(269 268)
(270 269)
(223 270)
)

// concaveStart mixedStart nonFeatureStart
0 0 0
// internalStart flatStart openStart multipleStart
177 271 271 271
// normals

542
(
(0 -0 1)
(0.939031 -0.343833 0.000761275)
(0 0 1)
(0.975294 -0.220911 0.000761137)
(-0 0 1)
(-0.980146 0.198275 0)
(-0 0 1)
(0.995535 -0.0943872 0.000761312)
(0 0 1)
(-0.999686 0.0250655 0)
(-0 0 1)
(0.999432 0.0336831 0.000760591)
(0 -0 1)
(-0.988851 -0.148909 -0)
(-0 0 1)
(0.986916 0.161233 0.000760036)
(0 0 1)
(0.958194 0.28612 0.000760518)
(0 -0 1)
(-0.947971 -0.318356 -0)
(0 0 1)
(0.913752 0.406272 0.000761453)
(0 -0 1)
(-0.878286 -0.478136 -0)
(0 0 1)
(0.854284 0.519806 0.00076101)
(0 -0 1)
(-0.78191 -0.623391 -0)
(0 0 1)
(0.780806 0.624774 0.00076095)
(0 0 1)
(0.694504 0.719489 0.000760629)
(0 -0 1)
(-0.6618 -0.74968 -0)
(0 0 1)
(0.596791 0.802396 0.00076016)
(0 -0 1)
(-0.521537 -0.853229 -0)
(0 0 1)
(0.489273 0.87213 0.000761131)
(0 0 1)
(0.373758 0.927526 0.000760935)
(0 -0 1)
(-0.365484 -0.930818 -0)
(0 0 1)
(0.252061 0.967711 0.000759976)
(0 -0 1)
(-0.19827 -0.980147 -0)
(0 0 1)
(0.12623 0.992001 0.000760293)
(0 -0 1)
(-0.0250522 -0.999686 -0)
(0 -0 1)
(-0.00164037 0.999998 0.000761355)
(0 0 1)
(-0.129515 0.991577 0.000760511)
(0 0 1)
(0.148906 -0.988851 0)
(0 0 1)
(-0.255245 0.966876 0.000760497)
(0 0 1)
(0.318357 -0.947971 0)
(0 0 1)
(-0.376795 0.926297 0.000760701)
(0 0 1)
(0.47813 -0.878289 0)
(0 0 1)
(-0.492136 0.870518 0.000760705)
(0 0 1)
(-0.599427 0.800429 0.000760409)
(0 0 1)
(0.623379 -0.78192 0)
(0 0 1)
(-0.696869 0.717198 0.000760568)
(0 0 1)
(0.749687 -0.661793 0)
(0 0 1)
(-0.782853 0.622206 0.000760731)
(0 0 1)
(0.853223 -0.521546 0)
(0 0 1)
(-0.855994 0.516986 0.000760529)
(0 0 1)
(-0.91508 0.403272 0.00076077)
(0 0 1)
(0.930826 -0.365462 0)
(0 0 1)
(-0.959135 0.282949 0.000760995)
(0 0 1)
(0.980145 -0.198282 0)
(0 0 1)
(-0.987443 0.157975 0.000760796)
(0 0 1)
(-0.999537 0.0304084 0.000760811)
(0 0 1)
(0.999686 -0.0250654 0)
(0 0 1)
(-0.995219 -0.0976637 0.00076076)
(0 0 1)
(0.988851 0.148911 0)
(0 0 1)
(-0.974561 -0.224122 0.000760824)
(0 0 1)
(0.947972 0.318354 0)
(0 0 1)
(-0.9379 -0.346904 0.000760696)
(0 0 1)
(-0.885838 -0.463994 0.00076065)
(0 0 1)
(0.878287 0.478135 0)
(0 0 1)
(-0.819225 -0.573472 0.000760291)
(0 0 1)
(0.781911 0.62339 0)
(0 0 1)
(-0.739168 -0.673521 0.000760729)
(0 0 1)
(0.661799 0.749681 0)
(0 0 1)
(-0.646973 -0.762513 0.000761264)
(0 0 1)
(-0.544168 -0.838976 0.000760989)
(0 0 1)
(0.52156 0.853215 0)
(0 0 1)
(-0.4324 -0.901682 0.00075994)
(0 0 1)
(0.365454 0.930829 0)
(0 0 1)
(-0.313531 -0.949578 0.000761308)
(0 0 1)
(0.198271 0.980147 0)
(0 0 1)
(-0.189547 -0.981871 0.000761598)
(0 0 1)
(-0.0624406 -0.998048 0.000760307)
(0 0 1)
(0.0250853 0.999685 0)
(0 0 1)
(0.0657262 -0.997837 0.000760577)
(-0 0 1)
(-0.148938 0.988847 0)
(0 0 1)
(0.192754 -0.981247 0.000760344)
(0 0 1)
(0.316687 -0.94853 0.000760401)
(-0 0 1)
(-0.318327 0.947981 0)
(0 0 1)
(0.435363 -0.900255 0.000761599)
(-0 0 1)
(-0.478154 0.878276 0)
(0 0 1)
(0.546911 -0.83719 0.000761174)
(-0 0 1)
(-0.623381 0.781918 0)
(0 0 1)
(0.649478 -0.76038 0.000761087)
(0 0 1)
(0.741381 -0.671084 0.00076064)
(-0 0 1)
(-0.749686 0.661794 0)
(0 0 1)
(0.821113 -0.570766 0.000760705)
(-0 0 1)
(-0.853224 0.521545 0)
(0 0 1)
(0.887363 -0.46107 0.000760666)
(-0 0 1)
(-0.930823 0.365472 0)
(-0.930823 0.365472 0)
(0 0 -1)
(-0.980146 0.198275 0)
(0 -0 -1)
(-0.999686 0.0250655 0)
(-0 0 -1)
(-0.988851 -0.148909 0)
(-0 0 -1)
(-0.947971 -0.318356 0)
(0 0 -1)
(-0.878286 -0.478136 0)
(0 0 -1)
(-0.78191 -0.623391 0)
(0 0 -1)
(-0.6618 -0.74968 0)
(0 0 -1)
(-0.521537 -0.853229 0)
(0 0 -1)
(-0.365484 -0.930818 0)
(0 0 -1)
(-0.19827 -0.980147 0)
(0 0 -1)
(-0.0250522 -0.999686 0)
(0 -0 -1)
(0.148906 -0.988851 0)
(0 -0 -1)
(0.318357 -0.947971 0)
(0 0 -1)
(0.47813 -0.878289 0)
(0 0 -1)
(0.623379 -0.78192 0)
(0 0 -1)
(0.749687 -0.661793 0)
(0 0 -1)
(0.853223 -0.521546 0)
(0 0 -1)
(0.930826 -0.365462 0)
(0 0 -1)
(0.980145 -0.198282 0)
(0 0 -1)
(0.999686 -0.0250654 0)
(0 0 -1)
(0.988851 0.148911 -0)
(0 0 -1)
(0.947972 0.318354 -0)
(0 0 -1)
(0.878287 0.478135 -0)
(0 0 -1)
(0.781911 0.62339 -0)
(0 0 -1)
(0.661799 0.749681 -0)
(0 0 -1)
(0.52156 0.853215 -0)
(0 0 -1)
(0.365454 0.930829 -0)
(0 0 -1)
(0.198271 0.980147 -0)
(0 0 -1)
(0.0250853 0.999685 -0)
(0 0 -1)
(-0.148938 0.988847 0)
(0 0 -1)
(-0.318327 0.947981 0)
(0 0 -1)
(-0.478154 0.878276 0)
(0 0 -1)
(-0.623381 0.781918 0)
(0 0 -1)
(-0.749686 0.661794 0)
(0 0 -1)
(-0.853224 0.521545 0)
(0 0 -1)
(0.941763 -0.336277 0)
(0 -0 1)
(0.973487 -0.228742 0)
(-0 0 1)
(0.992981 -0.118276 0)
(-0 0 1)
(0.99998 -0.00637374 0)
(-0 0 1)
(0.994405 0.105638 0)
(-0 0 1)
(0.976327 0.216302 0)
(-0 0 1)
(0.945967 0.324262 0)
(0 0 1)
(0.903711 0.428143 0)
(0 0 1)
(0.850101 0.52662 0)
(0 0 1)
(0.785787 0.618498 0)
(0 0 1)
(0.711591 0.702594 0)
(0 0 1)
(0.628467 0.777836 0)
(0 0 1)
(0.537413 0.843319 0)
(0 0 1)
(0.439604 0.898192 0)
(0 0 1)
(0.336277 0.941763 0)
(0 0 1)
(0.228743 0.973487 0)
(0 0 1)
(0.118278 0.992981 0)
(0 0 1)
(0.0063738 0.99998 0)
(0 -0 1)
(-0.10564 0.994404 0)
(0 -0 1)
(-0.2163 0.976327 0)
(0 0 1)
(-0.324265 0.945966 0)
(0 0 1)
(-0.428138 0.903713 0)
(0 0 1)
(-0.526624 0.850098 0)
(0 0 1)
(-0.618492 0.785791 0)
(0 0 1)
(-0.702589 0.711596 0)
(0 0 1)
(-0.77785 0.62845 0)
(0 0 1)
(-0.843318 0.537415 0)
(0 0 1)
(-0.898186 0.439616 0)
(0 0 1)
(-0.94176 0.336286 0)
(0 0 1)
(-0.973491 0.228725 0)
(0 0 1)
(-0.992979 0.118292 0)
(0 0 1)
(-0.99998 0.00636918 0)
(0 0 1)
(-0.994405 -0.105634 -0)
(0 0 1)
(-0.976325 -0.216307 -0)
(0 0 1)
(-0.945968 -0.32426 -0)
(0 0 1)
(-0.903713 -0.42814 -0)
(0 0 1)
(-0.850098 -0.526625 -0)
(0 0 1)
(-0.785783 -0.618503 -0)
(0 0 1)
(-0.711595 -0.70259 -0)
(0 0 1)
(-0.628469 -0.777835 -0)
(0 0 1)
(-0.53741 -0.843321 -0)
(0 0 1)
(-0.439608 -0.89819 -0)
(0 0 1)
(-0.336295 -0.941757 -0)
(0 0 1)
(-0.228719 -0.973492 -0)
(0 0 1)
(-0.118278 -0.99298 -0)
(0 0 1)
(-0.00637379 -0.99998 -0)
(0 0 1)
(0.105636 -0.994405 0)
(0 0 1)
(0.2163 -0.976327 0)
(0 0 1)
(0.324265 -0.945966 0)
(0 0 1)
(0.428142 -0.903712 0)
(0 0 1)
(0.526623 -0.850099 0)
(0 0 1)
(0.618491 -0.785792 0)
(0 0 1)
(0.702593 -0.711592 0)
(0 0 1)
(0.777853 -0.628447 0)
(0 0 1)
(0.843309 -0.537429 0)
(0 0 1)
(0.898189 -0.43961 0)
(0 0 1)
(0 0 -1)
(-0.976535 0.21536 0)
(0 0 -1)
(-0.937062 0.349164 0)
(0 0 -1)
(-0.997004 0.0773505 -7.56076e-05)
(0 0 -1)
(-0.998066 -0.0621578 -0.000147796)
(0 0 -1)
(-0.979703 -0.200454 -0.000216518)
(-0 0 -1)
(-0.942267 -0.334864 -0.000281254)
(-0 0 -1)
(-0.886502 -0.462725 -0.000343732)
(-0 0 -1)
(-0.813469 -0.581609 -0.000401403)
(-0 0 -1)
(-0.724614 -0.689155 -0.000455794)
(-0 0 -1)
(-0.621635 -0.783307 -0.000506233)
(-0 0 -1)
(-0.506586 -0.86219 -0.000554896)
(-0 0 -1)
(-0.381654 -0.924305 -0.00059811)
(-0 0 -1)
(-0.249317 -0.968422 -0.000638588)
(-0 0 -1)
(-0.112096 -0.993697 -0.000675455)
(0 0 -1)
(0.0272942 -0.999627 -0.000709838)
(0 0 -1)
(0.166156 -0.986099 -0.000739258)
(0 -0 -1)
(0.301744 -0.953389 -0.000766379)
(0 -0 -1)
(0.431513 -0.902106 -0.000788024)
(0 -0 -1)
(0.552866 -0.83327 -0.000808216)
(0 -0 -1)
(0.663457 -0.748214 -0.000823978)
(0 -0 -1)
(0.76113 -0.648599 -0.00083683)
(0 -0 -1)
(0.843988 -0.536361 -0.000845249)
(0 -0 -1)
(0.910421 -0.413683 -0.000850592)
(0 -0 -1)
(0.959133 -0.282955 -0.000852145)
(0 -0 -1)
(0.989179 -0.146708 -0.0008505)
(0 -0 -1)
(0.999971 -0.00761562 -0.000845285)
(0 0 -1)
(0.991299 0.131627 -0.00083644)
(0 0 -1)
(0.963331 0.268314 -0.000824005)
(0 0 -1)
(0.916616 0.399767 -0.000808464)
(0 0 -1)
(0.852064 0.523438 -0.000788947)
(0 0 -1)
(0.770918 0.636934 -0.000765716)
(0 0 -1)
(0.674774 0.738024 -0.000739492)
(0 0 -1)
(0.565485 0.824758 -0.00070949)
(0 0 -1)
(0.445194 0.895434 -0.00067558)
(0 0 -1)
(0.316248 0.948676 -0.000639024)
(0 0 -1)
(0.18114 0.983457 -0.000598782)
(0 0 -1)
(0.0425254 0.999095 -0.000554897)
(0 0 -1)
(-0.0969479 0.995289 -0.00050607)
(0 0 -1)
(-0.234532 0.972108 -0.000456122)
(0 0 -1)
(-0.367534 0.93001 -0.000400944)
(0 0 -1)
(-0.493387 0.86981 -0.000343185)
(0 0 -1)
(-0.609648 0.792672 -0.000281539)
(0 0 -1)
(-0.714024 0.700121 -0.000216604)
(0 0 -1)
(-0.804519 0.593927 -0.000147394)
(0 0 -1)
(-0.879347 0.476181 -7.55215e-05)
(0 0 1)
(0.975294 -0.220911 -0.000761134)
(0 0 1)
(0.995535 -0.0943872 -0.000761309)
(0 -0 1)
(0.999432 0.0336831 -0.000760589)
(0 -0 1)
(0.986916 0.161233 -0.000760033)
(0 -0 1)
(0.958194 0.28612 -0.000760515)
(0 -0 1)
(0.913752 0.406272 -0.00076145)
(0 -0 1)
(0.854284 0.519806 -0.000761007)
(0 -0 1)
(0.780806 0.624774 -0.000760947)
(0 -0 1)
(0.694504 0.719489 -0.000760626)
(0 -0 1)
(0.596791 0.802396 -0.000760157)
(0 -0 1)
(0.489273 0.87213 -0.000761128)
(0 -0 1)
(0.373758 0.927526 -0.000760932)
(0 -0 1)
(0.252061 0.967711 -0.000759973)
(0 -0 1)
(0.12623 0.992001 -0.000760291)
(0 0 1)
(-0.00164037 0.999998 -0.000761352)
(0 0 1)
(-0.129515 0.991577 -0.000760509)
(0 0 1)
(-0.255245 0.966876 -0.000760494)
(0 0 1)
(-0.376795 0.926297 -0.000760698)
(0 0 1)
(-0.492136 0.870518 -0.000760702)
(0 0 1)
(-0.599427 0.800429 -0.000760406)
(0 0 1)
(-0.696869 0.717198 -0.000760565)
(0 0 1)
(-0.782853 0.622206 -0.000760728)
(0 0 1)
(-0.855994 0.516986 -0.000760526)
(0 0 1)
(-0.91508 0.403272 -0.000760767)
(0 0 1)
(-0.959135 0.282949 -0.000760992)
(0 0 1)
(-0.987443 0.157975 -0.000760793)
(0 0 1)
(-0.999537 0.0304084 -0.000760808)
(0 0 1)
(-0.995219 -0.0976637 -0.000760757)
(0 0 1)
(-0.974561 -0.224122 -0.000760821)
(0 0 1)
(-0.9379 -0.346904 -0.000760693)
(0 0 1)
(-0.885838 -0.463994 -0.000760647)
(0 0 1)
(-0.819225 -0.573472 -0.000760288)
(0 0 1)
(-0.739168 -0.673521 -0.000760726)
(0 0 1)
(-0.646973 -0.762513 -0.000761261)
(0 0 1)
(-0.544168 -0.838976 -0.000760986)
(0 0 1)
(-0.4324 -0.901682 -0.000759937)
(0 0 1)
(-0.313531 -0.949578 -0.000761305)
(0 0 1)
(-0.189547 -0.981871 -0.000761595)
(0 0 1)
(-0.0624406 -0.998048 -0.000760304)
(-0 0 1)
(0.0657262 -0.997837 -0.000760574)
(-0 0 1)
(0.192754 -0.981247 -0.000760341)
(-0 0 1)
(0.316687 -0.94853 -0.000760398)
(-0 0 1)
(0.435363 -0.900255 -0.000761596)
(-0 0 1)
(0.546911 -0.83719 -0.000761172)
(-0 0 1)
(0.649478 -0.76038 -0.000761084)
(-0 0 1)
(0.741381 -0.671084 -0.000760637)
(-0 0 1)
(0.821113 -0.570766 -0.000760702)
(-0 0 1)
(0.887363 -0.46107 -0.000760663)
(-0 0 1)
(0.939031 -0.343833 -0.000761272)
)

// normal volume types

542
(
0
0
0
0
0
0
0
0
0
0
0
0
0
0
0
0
0
0
0
0
0
0
0
0
0
0
0
0
0
0
0
0
0
0
0
0
0
0
0
0
0
0
0
0
0
0
0
0
0
0
0
0
0
0
0
0
0
0
0
0
0
0
0
0
0
0
0
0
0
0
0
0
0
0
0
0
0
0
0
0
0
0
0
0
0
0
0
0
0
0
0
0
0
0
0
0
0
0
0
0
0
0
0
0
0
0
0
0
0
0
0
0
0
0
0
0
0
0
0
0
0
0
0
0
0
0
0
0
0
0
0
0
0
0
0
0
0
0
0
0
0
0
0
0
0
0
0
0
0
0
0
0
0
0
0
0
0
0
0
0
0
0
0
0
0
0
0
0
0
0
0
0
0
0
0
0
0
0
0
0
0
0
0
0
0
0
0
0
0
0
0
0
0
0
0
0
0
0
0
0
0
0
0
0
0
0
0
0
0
0
0
0
0
0
0
0
0
0
0
0
0
0
0
0
0
0
0
0
0
0
0
0
0
0
0
0
0
0
0
0
0
0
0
0
0
0
0
0
0
0
0
0
0
0
0
0
0
0
0
0
0
0
0
0
0
0
0
0
0
0
0
0
0
0
0
0
0
0
0
0
0
0
0
0
0
0
0
0
0
0
0
0
0
0
0
0
0
0
0
0
0
0
0
0
0
0
0
0
0
0
0
0
0
0
0
0
0
0
0
0
0
0
0
0
0
0
0
0
0
0
0
0
0
0
0
0
0
0
0
0
0
0
0
0
0
0
0
0
0
0
0
0
0
0
0
0
0
0
0
0
0
0
0
0
0
0
0
0
0
0
0
0
0
0
0
0
0
0
0
0
0
0
0
0
0
0
0
0
0
0
0
0
0
0
0
0
0
0
0
0
0
0
0
0
0
0
0
0
0
0
0
0
0
0
0
0
0
0
0
0
0
0
0
0
0
0
0
0
0
0
0
0
0
0
0
0
0
0
0
0
0
0
0
0
0
0
0
0
0
0
0
0
0
0
0
0
0
0
0
0
0
0
0
0
0
0
0
0
0
0
0
0
0
0
0
0
0
0
0
0
0
0
0
0
0
0
0
0
0
0
0
0
0
0
0
0
0
0
0
0
0
0
0
0
0
0
0
0
0
0
0
0
0
0
0
0
0
0
0
0
0
0
0
0
0
0
0
0
0
0
0
0
0
0
0
0
0
0
0
0
0
0
)

// normalDirections

271
(
2(1 -1)
2(1 -1)
2(1 -1)
2(1 -1)
2(1 -1)
2(1 -1)
2(1 -1)
2(1 -1)
2(1 -1)
2(1 -1)
2(1 -1)
2(1 -1)
2(1 -1)
2(1 -1)
2(1 -1)
2(1 -1)
2(1 -1)
2(1 -1)
2(1 -1)
2(1 -1)
2(1 -1)
2(1 -1)
2(1 -1)
2(1 -1)
2(1 -1)
2(1 -1)
2(1 -1)
2(1 -1)
2(1 -1)
2(1 -1)
2(1 -1)
2(1 -1)
2(1 -1)
2(1 -1)
2(1 -1)
2(1 -1)
2(1 -1)
2(1 -1)
2(1 -1)
2(1 -1)
2(1 -1)
2(1 -1)
2(1 -1)
2(1 -1)
2(1 -1)
2(1 -1)
2(1 -1)
2(1 -1)
2(1 -1)
2(1 -1)
2(1 -1)
2(1 -1)
2(1 -1)
2(1 -1)
2(1 -1)
2(1 -1)
2(1 -1)
2(1 -1)
2(1 -1)
2(1 -1)
2(1 -1)
2(1 -1)
2(1 -1)
2(1 -1)
2(1 -1)
2(1 -1)
2(1 -1)
2(1 -1)
2(1 -1)
2(1 -1)
2(1 -1)
2(1 -1)
2(1 -1)
2(1 -1)
2(1 -1)
2(1 -1)
2(1 -1)
2(1 -1)
2(1 -1)
2(1 -1)
2(1 -1)
2(1 -1)
2(1 -1)
2(1 -1)
2(1 -1)
2(1 -1)
2(1 -1)
2(1 -1)
2(1 -1)
2(1 -1)
2(1 -1)
2(1 -1)
2(1 -1)
2(1 -1)
2(1 -1)
2(1 -1)
2(1 -1)
2(1 -1)
2(1 -1)
2(1 -1)
2(1 -1)
2(1 -1)
2(1 -1)
2(1 -1)
2(1 -1)
2(1 -1)
2(1 -1)
2(1 -1)
2(1 -1)
2(1 -1)
2(1 -1)
2(1 -1)
2(1 -1)
2(1 -1)
2(1 -1)
2(1 -1)
2(1 -1)
2(1 -1)
2(1 -1)
2(1 -1)
2(1 -1)
2(1 -1)
2(1 -1)
2(1 -1)
2(1 -1)
2(1 -1)
2(1 -1)
2(1 -1)
2(1 -1)
2(1 -1)
2(1 -1)
2(1 -1)
2(1 -1)
2(1 -1)
2(1 -1)
2(1 -1)
2(1 -1)
2(1 -1)
2(1 -1)
2(1 -1)
2(1 -1)
2(1 -1)
2(1 -1)
2(1 -1)
2(1 -1)
2(1 -1)
2(1 -1)
2(1 -1)
2(1 -1)
2(1 -1)
2(1 -1)
2(1 -1)
2(1 -1)
2(1 -1)
2(1 -1)
2(1 -1)
2(1 -1)
2(1 -1)
2(1 -1)
2(1 -1)
2(1 -1)
2(1 -1)
2(1 -1)
2(1 -1)
2(1 -1)
2(1 -1)
2(1 -1)
2(1 -1)
2(1 -1)
2(1 -1)
2(1 -1)
2(1 -1)
2(1 -1)
2(1 -1)
2(1 -1)
2(1 -1)
2(1 -1)
2(1 -1)
2(1 -1)
2(1 -1)
2(1 -1)
2(1 -1)
2(1 -1)
2(1 -1)
2(1 -1)
2(1 -1)
2(1 -1)
2(1 -1)
2(1 -1)
2(1 -1)
2(1 -1)
2(1 -1)
2(1 -1)
2(1 -1)
2(1 -1)
2(1 -1)
2(1 -1)
2(1 -1)
2(1 -1)
2(1 -1)
2(1 -1)
2(1 -1)
2(1 -1)
2(1 -1)
2(1 -1)
2(1 -1)
2(1 -1)
2(1 -1)
2(1 -1)
2(1 -1)
2(1 -1)
2(1 -1)
2(1 -1)
2(1 -1)
2(1 -1)
2(1 -1)
2(1 -1)
2(1 -1)
2(1 -1)
2(1 -1)
2(1 -1)
2(1 -1)
2(1 -1)
2(1 -1)
2(1 -1)
2(1 -1)
2(1 -1)
2(1 -1)
2(1 -1)
2(1 -1)
2(1 -1)
2(1 -1)
2(1 -1)
2(1 -1)
2(1 -1)
2(1 -1)
2(1 -1)
2(1 -1)
2(1 -1)
2(1 -1)
2(1 -1)
2(1 -1)
2(1 -1)
2(1 -1)
2(1 -1)
2(1 -1)
2(1 -1)
2(1 -1)
2(1 -1)
2(1 -1)
2(1 -1)
2(1 -1)
2(1 -1)
2(1 -1)
2(1 -1)
2(1 -1)
2(1 -1)
2(1 -1)
2(1 -1)
2(1 -1)
2(1 -1)
2(1 -1)
2(1 -1)
2(1 -1)
2(1 -1)
2(1 -1)
2(1 -1)
2(1 -1)
2(1 -1)
2(1 -1)
2(1 -1)
)

// edgeNormals

271
(
2(0 1)
2(2 3)
2(4 5)
2(6 7)
2(8 9)
2(10 11)
2(12 13)
2(14 15)
2(16 17)
2(18 19)
2(20 21)
2(22 23)
2(24 25)
2(26 27)
2(28 29)
2(30 31)
2(32 33)
2(34 35)
2(36 37)
2(38 39)
2(40 41)
2(42 43)
2(44 45)
2(46 47)
2(48 49)
2(50 51)
2(52 53)
2(54 55)
2(56 57)
2(58 59)
2(60 61)
2(62 63)
2(64 65)
2(66 67)
2(68 69)
2(70 71)
2(72 73)
2(74 75)
2(76 77)
2(78 79)
2(80 81)
2(82 83)
2(84 85)
2(86 87)
2(88 89)
2(90 91)
2(92 93)
2(94 95)
2(96 97)
2(98 99)
2(100 101)
2(102 103)
2(104 105)
2(106 107)
2(108 109)
2(110 111)
2(112 113)
2(114 115)
2(116 117)
2(118 119)
2(120 121)
2(122 123)
2(124 125)
2(126 127)
2(128 129)
2(130 131)
2(132 133)
2(134 135)
2(136 137)
2(138 139)
2(140 141)
2(142 143)
2(144 145)
2(146 147)
2(148 149)
2(150 151)
2(152 153)
2(154 155)
2(156 157)
2(158 159)
2(160 161)
2(162 163)
2(164 165)
2(166 167)
2(168 169)
2(170 171)
2(172 173)
2(174 175)
2(176 177)
2(178 179)
2(180 181)
2(182 183)
2(184 185)
2(186 187)
2(188 189)
2(190 191)
2(192 193)
2(194 195)
2(196 197)
2(198 199)
2(200 201)
2(202 203)
2(204 205)
2(206 207)
2(208 209)
2(210 211)
2(212 213)
2(214 215)
2(216 217)
2(218 219)
2(220 221)
2(222 223)
2(224 225)
2(226 227)
2(228 229)
2(230 231)
2(232 233)
2(234 235)
2(236 237)
2(238 239)
2(240 241)
2(242 243)
2(244 245)
2(246 247)
2(248 249)
2(250 251)
2(252 253)
2(254 255)
2(256 257)
2(258 259)
2(260 261)
2(262 263)
2(264 265)
2(266 267)
2(268 269)
2(270 271)
2(272 273)
2(274 275)
2(276 277)
2(278 279)
2(280 281)
2(282 283)
2(284 285)
2(286 287)
2(288 289)
2(290 291)
2(292 293)
2(294 295)
2(296 297)
2(298 299)
2(300 301)
2(302 303)
2(304 305)
2(306 307)
2(308 309)
2(310 311)
2(312 313)
2(314 315)
2(316 317)
2(318 319)
2(320 321)
2(322 323)
2(324 325)
2(326 327)
2(328 329)
2(330 331)
2(332 333)
2(334 335)
2(336 337)
2(338 339)
2(340 341)
2(342 343)
2(344 345)
2(346 347)
2(348 349)
2(350 351)
2(352 353)
2(354 355)
2(356 357)
2(358 359)
2(360 361)
2(362 363)
2(364 365)
2(366 367)
2(368 369)
2(370 371)
2(372 373)
2(374 375)
2(376 377)
2(378 379)
2(380 381)
2(382 383)
2(384 385)
2(386 387)
2(388 389)
2(390 391)
2(392 393)
2(394 395)
2(396 397)
2(398 399)
2(400 401)
2(402 403)
2(404 405)
2(406 407)
2(408 409)
2(410 411)
2(412 413)
2(414 415)
2(416 417)
2(418 419)
2(420 421)
2(422 423)
2(424 425)
2(426 427)
2(428 429)
2(430 431)
2(432 433)
2(434 435)
2(436 437)
2(438 439)
2(440 441)
2(442 443)
2(444 445)
2(446 447)
2(448 449)
2(450 451)
2(452 453)
2(454 455)
2(456 457)
2(458 459)
2(460 461)
2(462 463)
2(464 465)
2(466 467)
2(468 469)
2(470 471)
2(472 473)
2(474 475)
2(476 477)
2(478 479)
2(480 481)
2(482 483)
2(484 485)
2(486 487)
2(488 489)
2(490 491)
2(492 493)
2(494 495)
2(496 497)
2(498 499)
2(500 501)
2(502 503)
2(504 505)
2(506 507)
2(508 509)
2(510 511)
2(512 513)
2(514 515)
2(516 517)
2(518 519)
2(520 521)
2(522 523)
2(524 525)
2(526 527)
2(528 529)
2(530 531)
2(532 533)
2(534 535)
2(536 537)
2(538 539)
2(540 541)
)

// featurePointNormals
0()
// featurePointEdges
0()
// regionEdges
0()


// ************************************************************************* //
