/*--------------------------------*- C++ -*----------------------------------*\
  =========                 |
  \\      /  F ield         | OpenFOAM: The Open Source CFD Toolbox
   \\    /   O peration     | Website:  https://openfoam.org
    \\  /    A nd           | Version:  7
     \\/     M anipulation  |
\*---------------------------------------------------------------------------*/
FoamFile
{
    version     2.0;
    format      ascii;
    class       extendedFeatureEdgeMesh;
    location    "constant/extendedFeatureEdgeMesh";
    object      RF.extendedFeatureEdgeMesh;
}
// * * * * * * * * * * * * * * * * * * * * * * * * * * * * * * * * * * * * * //

// points

356
(
(0.00188157 -0.013873 0.0118067)
(0.00236999 -0.0137979 0.0118067)
(0.0013908 -0.0139308 0.0118067)
(0.000898297 -0.0139711 0.0118067)
(0.000404675 -0.0139941 0.0118067)
(-8.94514e-05 -0.0139997 0.0118067)
(-0.000583466 -0.0139878 0.0118067)
(-0.00107675 -0.0139585 0.0118067)
(-0.0015687 -0.0139118 0.0118067)
(-0.00205869 -0.0138478 0.0118067)
(-0.00254612 -0.0137665 0.0118067)
(-0.00303037 -0.0136681 0.0118067)
(-0.00351085 -0.0135526 0.0118067)
(-0.00398696 -0.0134203 0.0118067)
(-0.0044581 -0.0132712 0.0118067)
(-0.00492368 -0.0131056 0.0118067)
(-0.00538313 -0.0129237 0.0118067)
(-0.00583587 -0.0127257 0.0118067)
(-0.00628135 -0.0125118 0.0118067)
(-0.00671899 -0.0122823 0.0118067)
(-0.00714827 -0.0120375 0.0118067)
(-0.00756864 -0.0117778 0.0118067)
(-0.00797957 -0.0115033 0.0118067)
(-0.00838057 -0.0112145 0.0118067)
(-0.00877113 -0.0109118 0.0118067)
(-0.00915076 -0.0105955 0.0118067)
(-0.00951899 -0.0102659 0.0118067)
(-0.00987536 -0.00992357 0.0118067)
(-0.0102194 -0.00956888 0.0118067)
(-0.0105508 -0.00920226 0.0118067)
(-0.0108689 -0.00882417 0.0118067)
(-0.0111736 -0.00843509 0.0118067)
(-0.0114643 -0.00803551 0.0118067)
(-0.0117408 -0.00762591 0.0118067)
(-0.0120026 -0.00720681 0.0118067)
(-0.0122494 -0.00677873 0.0118067)
(-0.012481 -0.00634221 0.0118067)
(-0.0126971 -0.00589778 0.0118067)
(-0.0128973 -0.00544601 0.0118067)
(-0.0130815 -0.00498745 0.0118067)
(-0.0132493 -0.00452268 0.0118067)
(-0.0134007 -0.00405227 0.0118067)
(-0.0135354 -0.00357682 0.0118067)
(-0.0136532 -0.00309691 0.0118067)
(-0.013754 -0.00261314 0.0118067)
(-0.0138376 -0.00212611 0.0118067)
(-0.013904 -0.00163644 0.0118067)
(-0.0139531 -0.00114473 0.0118067)
(-0.0139848 -0.000651587 0.0118067)
(-0.0139991 -0.000157636 0.0118067)
(-0.013996 0.000336511 0.0118067)
(-0.0139754 0.000830239 0.0118067)
(-0.0139374 0.00132293 0.0118067)
(-0.013882 0.00181398 0.0118067)
(-0.0138093 0.00230276 0.0118067)
(-0.0137194 0.00278868 0.0118067)
(-0.0136125 0.00327112 0.0118067)
(-0.0134886 0.00374949 0.0118067)
(-0.0133478 0.00422319 0.0118067)
(-0.0131905 0.00469162 0.0118067)
(-0.0130167 0.00515421 0.0118067)
(-0.0128267 0.00561038 0.0118067)
(-0.0126207 0.00605955 0.0118067)
(-0.012399 0.00650118 0.0118067)
(-0.0121618 0.00693471 0.0118067)
(-0.0119095 0.0073596 0.0118067)
(-0.0116424 0.00777532 0.0118067)
(-0.0113607 0.00818135 0.0118067)
(-0.0110649 0.00857719 0.0118067)
(-0.0107553 0.00896234 0.0118067)
(-0.0104323 0.00933633 0.0118067)
(-0.0100963 0.00969868 0.0118067)
(-0.00974774 0.010049 0.0118067)
(-0.00938703 0.0103867 0.0118067)
(-0.00901462 0.0107115 0.0118067)
(-0.00863098 0.011023 0.0118067)
(-0.00823658 0.0113207 0.0118067)
(-0.00783193 0.0116044 0.0118067)
(-0.00741751 0.0118735 0.0118067)
(-0.00699386 0.0121279 0.0118067)
(-0.00656149 0.0123672 0.0118067)
(-0.00612095 0.012591 0.0118067)
(-0.00567278 0.0127992 0.0118067)
(-0.00521755 0.0129914 0.0118067)
(-0.00475581 0.0131675 0.0118067)
(-0.00428815 0.0133271 0.0118067)
(-0.00381514 0.0134701 0.0118067)
(-0.00333738 0.0135964 0.0118067)
(-0.00285547 0.0137057 0.0118067)
(-0.00236999 0.0137979 0.0118067)
(-0.00188157 0.013873 0.0118067)
(-0.0013908 0.0139308 0.0118067)
(-0.000898297 0.0139711 0.0118067)
(-0.000404675 0.0139941 0.0118067)
(8.94514e-05 0.0139997 0.0118067)
(0.000583466 0.0139878 0.0118067)
(0.00107675 0.0139585 0.0118067)
(0.0015687 0.0139118 0.0118067)
(0.00205869 0.0138478 0.0118067)
(0.00254612 0.0137665 0.0118067)
(0.00303037 0.0136681 0.0118067)
(0.00351085 0.0135526 0.0118067)
(0.00398696 0.0134203 0.0118067)
(0.0044581 0.0132712 0.0118067)
(0.00492368 0.0131056 0.0118067)
(0.00538313 0.0129237 0.0118067)
(0.00583587 0.0127257 0.0118067)
(0.00628135 0.0125118 0.0118067)
(0.00671899 0.0122823 0.0118067)
(0.00714827 0.0120375 0.0118067)
(0.00756864 0.0117778 0.0118067)
(0.00797957 0.0115033 0.0118067)
(0.00838057 0.0112145 0.0118067)
(0.00877113 0.0109118 0.0118067)
(0.00915076 0.0105955 0.0118067)
(0.00951899 0.0102659 0.0118067)
(0.00987536 0.00992357 0.0118067)
(0.0102194 0.00956888 0.0118067)
(0.0105508 0.00920226 0.0118067)
(0.0108689 0.00882417 0.0118067)
(0.0111736 0.00843509 0.0118067)
(0.0114643 0.00803551 0.0118067)
(0.0117408 0.00762591 0.0118067)
(0.0120026 0.00720681 0.0118067)
(0.0122494 0.00677873 0.0118067)
(0.012481 0.00634221 0.0118067)
(0.0126971 0.00589778 0.0118067)
(0.0128973 0.00544601 0.0118067)
(0.0130815 0.00498745 0.0118067)
(0.0132493 0.00452268 0.0118067)
(0.0134007 0.00405227 0.0118067)
(0.0135354 0.00357682 0.0118067)
(0.0136532 0.00309691 0.0118067)
(0.013754 0.00261314 0.0118067)
(0.0138376 0.00212611 0.0118067)
(0.013904 0.00163644 0.0118067)
(0.0139531 0.00114473 0.0118067)
(0.0139848 0.000651587 0.0118067)
(0.0139991 0.000157636 0.0118067)
(0.013996 -0.000336511 0.0118067)
(0.0139754 -0.000830239 0.0118067)
(0.0139374 -0.00132293 0.0118067)
(0.013882 -0.00181398 0.0118067)
(0.0138093 -0.00230276 0.0118067)
(0.0137194 -0.00278868 0.0118067)
(0.0136125 -0.00327112 0.0118067)
(0.0134886 -0.00374949 0.0118067)
(0.0133478 -0.00422319 0.0118067)
(0.0131905 -0.00469162 0.0118067)
(0.0130167 -0.00515421 0.0118067)
(0.0128267 -0.00561038 0.0118067)
(0.0126207 -0.00605955 0.0118067)
(0.012399 -0.00650118 0.0118067)
(0.0121618 -0.00693471 0.0118067)
(0.0119095 -0.0073596 0.0118067)
(0.0116424 -0.00777532 0.0118067)
(0.0113607 -0.00818135 0.0118067)
(0.0110649 -0.00857719 0.0118067)
(0.0107553 -0.00896234 0.0118067)
(0.0104323 -0.00933633 0.0118067)
(0.0100963 -0.00969868 0.0118067)
(0.00974774 -0.010049 0.0118067)
(0.00938703 -0.0103867 0.0118067)
(0.00901462 -0.0107115 0.0118067)
(0.00863098 -0.011023 0.0118067)
(0.00823658 -0.0113207 0.0118067)
(0.00783193 -0.0116044 0.0118067)
(0.00741751 -0.0118735 0.0118067)
(0.00699386 -0.0121279 0.0118067)
(0.00656149 -0.0123672 0.0118067)
(0.00612095 -0.012591 0.0118067)
(0.00567278 -0.0127992 0.0118067)
(0.00521755 -0.0129914 0.0118067)
(0.00475581 -0.0131675 0.0118067)
(0.00428815 -0.0133271 0.0118067)
(0.00381514 -0.0134701 0.0118067)
(0.00333738 -0.0135964 0.0118067)
(0.00285547 -0.0137057 0.0118067)
(0.00188157 -0.013873 0.0308067)
(0.0013908 -0.0139308 0.0308067)
(0.00236999 -0.0137979 0.0308067)
(0.00285547 -0.0137057 0.0308067)
(0.00333738 -0.0135964 0.0308067)
(0.00381514 -0.0134701 0.0308067)
(0.00428815 -0.0133271 0.0308067)
(0.00475581 -0.0131675 0.0308067)
(0.00521755 -0.0129914 0.0308067)
(0.00567278 -0.0127992 0.0308067)
(0.00612095 -0.012591 0.0308067)
(0.00656149 -0.0123672 0.0308067)
(0.00699386 -0.0121279 0.0308067)
(0.00741751 -0.0118735 0.0308067)
(0.00783193 -0.0116044 0.0308067)
(0.00823658 -0.0113207 0.0308067)
(0.00863098 -0.011023 0.0308067)
(0.00901462 -0.0107115 0.0308067)
(0.00938703 -0.0103867 0.0308067)
(0.00974774 -0.010049 0.0308067)
(0.0100963 -0.00969868 0.0308067)
(0.0104323 -0.00933633 0.0308067)
(0.0107553 -0.00896234 0.0308067)
(0.0110649 -0.00857719 0.0308067)
(0.0113607 -0.00818135 0.0308067)
(0.0116424 -0.00777532 0.0308067)
(0.0119095 -0.0073596 0.0308067)
(0.0121618 -0.00693471 0.0308067)
(0.012399 -0.00650118 0.0308067)
(0.0126207 -0.00605955 0.0308067)
(0.0128267 -0.00561038 0.0308067)
(0.0130167 -0.00515421 0.0308067)
(0.0131905 -0.00469162 0.0308067)
(0.0133478 -0.00422319 0.0308067)
(0.0134886 -0.00374949 0.0308067)
(0.0136125 -0.00327112 0.0308067)
(0.0137194 -0.00278868 0.0308067)
(0.0138093 -0.00230276 0.0308067)
(0.013882 -0.00181398 0.0308067)
(0.0139374 -0.00132293 0.0308067)
(0.0139754 -0.000830239 0.0308067)
(0.013996 -0.000336511 0.0308067)
(0.0139991 0.000157636 0.0308067)
(0.0139848 0.000651587 0.0308067)
(0.0139531 0.00114473 0.0308067)
(0.013904 0.00163644 0.0308067)
(0.0138376 0.00212611 0.0308067)
(0.013754 0.00261314 0.0308067)
(0.0136532 0.00309691 0.0308067)
(0.0135354 0.00357682 0.0308067)
(0.0134007 0.00405227 0.0308067)
(0.0132493 0.00452268 0.0308067)
(0.0130815 0.00498745 0.0308067)
(0.0128973 0.00544601 0.0308067)
(0.0126971 0.00589778 0.0308067)
(0.012481 0.00634221 0.0308067)
(0.0122494 0.00677873 0.0308067)
(0.0120026 0.00720681 0.0308067)
(0.0117408 0.00762591 0.0308067)
(0.0114643 0.00803551 0.0308067)
(0.0111736 0.00843509 0.0308067)
(0.0108689 0.00882417 0.0308067)
(0.0105508 0.00920226 0.0308067)
(0.0102194 0.00956888 0.0308067)
(0.00987536 0.00992357 0.0308067)
(0.00951899 0.0102659 0.0308067)
(0.00915076 0.0105955 0.0308067)
(0.00877113 0.0109118 0.0308067)
(0.00838057 0.0112145 0.0308067)
(0.00797957 0.0115033 0.0308067)
(0.00756864 0.0117778 0.0308067)
(0.00714827 0.0120375 0.0308067)
(0.00671899 0.0122823 0.0308067)
(0.00628135 0.0125118 0.0308067)
(0.00583587 0.0127257 0.0308067)
(0.00538313 0.0129237 0.0308067)
(0.00492368 0.0131056 0.0308067)
(0.0044581 0.0132712 0.0308067)
(0.00398696 0.0134203 0.0308067)
(0.00351085 0.0135526 0.0308067)
(0.00303037 0.0136681 0.0308067)
(0.00254612 0.0137665 0.0308067)
(0.00205869 0.0138478 0.0308067)
(0.0015687 0.0139118 0.0308067)
(0.00107675 0.0139585 0.0308067)
(0.000583466 0.0139878 0.0308067)
(8.94514e-05 0.0139997 0.0308067)
(-0.000404675 0.0139941 0.0308067)
(-0.000898297 0.0139711 0.0308067)
(-0.0013908 0.0139308 0.0308067)
(-0.00188157 0.013873 0.0308067)
(-0.00236999 0.0137979 0.0308067)
(-0.00285547 0.0137057 0.0308067)
(-0.00333738 0.0135964 0.0308067)
(-0.00381514 0.0134701 0.0308067)
(-0.00428815 0.0133271 0.0308067)
(-0.00475581 0.0131675 0.0308067)
(-0.00521755 0.0129914 0.0308067)
(-0.00567278 0.0127992 0.0308067)
(-0.00612095 0.012591 0.0308067)
(-0.00656149 0.0123672 0.0308067)
(-0.00699386 0.0121279 0.0308067)
(-0.00741751 0.0118735 0.0308067)
(-0.00783193 0.0116044 0.0308067)
(-0.00823658 0.0113207 0.0308067)
(-0.00863098 0.011023 0.0308067)
(-0.00901462 0.0107115 0.0308067)
(-0.00938703 0.0103867 0.0308067)
(-0.00974774 0.010049 0.0308067)
(-0.0100963 0.00969868 0.0308067)
(-0.0104323 0.00933633 0.0308067)
(-0.0107553 0.00896234 0.0308067)
(-0.0110649 0.00857719 0.0308067)
(-0.0113607 0.00818135 0.0308067)
(-0.0116424 0.00777532 0.0308067)
(-0.0119095 0.0073596 0.0308067)
(-0.0121618 0.00693471 0.0308067)
(-0.012399 0.00650118 0.0308067)
(-0.0126207 0.00605955 0.0308067)
(-0.0128267 0.00561038 0.0308067)
(-0.0130167 0.00515421 0.0308067)
(-0.0131905 0.00469162 0.0308067)
(-0.0133478 0.00422319 0.0308067)
(-0.0134886 0.00374949 0.0308067)
(-0.0136125 0.00327112 0.0308067)
(-0.0137194 0.00278868 0.0308067)
(-0.0138093 0.00230276 0.0308067)
(-0.013882 0.00181398 0.0308067)
(-0.0139374 0.00132293 0.0308067)
(-0.0139754 0.000830239 0.0308067)
(-0.013996 0.000336511 0.0308067)
(-0.0139991 -0.000157636 0.0308067)
(-0.0139848 -0.000651587 0.0308067)
(-0.0139531 -0.00114473 0.0308067)
(-0.013904 -0.00163644 0.0308067)
(-0.0138376 -0.00212611 0.0308067)
(-0.013754 -0.00261314 0.0308067)
(-0.0136532 -0.00309691 0.0308067)
(-0.0135354 -0.00357682 0.0308067)
(-0.0134007 -0.00405227 0.0308067)
(-0.0132493 -0.00452268 0.0308067)
(-0.0130815 -0.00498745 0.0308067)
(-0.0128973 -0.00544601 0.0308067)
(-0.0126971 -0.00589778 0.0308067)
(-0.012481 -0.00634221 0.0308067)
(-0.0122494 -0.00677873 0.0308067)
(-0.0120026 -0.00720681 0.0308067)
(-0.0117408 -0.00762591 0.0308067)
(-0.0114643 -0.00803551 0.0308067)
(-0.0111736 -0.00843509 0.0308067)
(-0.0108689 -0.00882417 0.0308067)
(-0.0105508 -0.00920226 0.0308067)
(-0.0102194 -0.00956888 0.0308067)
(-0.00987536 -0.00992357 0.0308067)
(-0.00951899 -0.0102659 0.0308067)
(-0.00915076 -0.0105955 0.0308067)
(-0.00877113 -0.0109118 0.0308067)
(-0.00838057 -0.0112145 0.0308067)
(-0.00797957 -0.0115033 0.0308067)
(-0.00756864 -0.0117778 0.0308067)
(-0.00714827 -0.0120375 0.0308067)
(-0.00671899 -0.0122823 0.0308067)
(-0.00628135 -0.0125118 0.0308067)
(-0.00583587 -0.0127257 0.0308067)
(-0.00538313 -0.0129237 0.0308067)
(-0.00492368 -0.0131056 0.0308067)
(-0.0044581 -0.0132712 0.0308067)
(-0.00398696 -0.0134203 0.0308067)
(-0.00351085 -0.0135526 0.0308067)
(-0.00303037 -0.0136681 0.0308067)
(-0.00254612 -0.0137665 0.0308067)
(-0.00205869 -0.0138478 0.0308067)
(-0.0015687 -0.0139118 0.0308067)
(-0.00107675 -0.0139585 0.0308067)
(-0.000583466 -0.0139878 0.0308067)
(-8.94514e-05 -0.0139997 0.0308067)
(0.000404675 -0.0139941 0.0308067)
(0.000898297 -0.0139711 0.0308067)
)

// edges

356
(
(0 1)
(2 0)
(3 2)
(4 3)
(5 4)
(6 5)
(7 6)
(8 7)
(9 8)
(10 9)
(11 10)
(12 11)
(13 12)
(14 13)
(15 14)
(16 15)
(17 16)
(18 17)
(19 18)
(20 19)
(21 20)
(22 21)
(23 22)
(24 23)
(25 24)
(26 25)
(27 26)
(28 27)
(29 28)
(30 29)
(31 30)
(32 31)
(33 32)
(34 33)
(35 34)
(36 35)
(37 36)
(38 37)
(39 38)
(40 39)
(41 40)
(42 41)
(43 42)
(44 43)
(45 44)
(46 45)
(47 46)
(48 47)
(49 48)
(50 49)
(51 50)
(52 51)
(53 52)
(54 53)
(55 54)
(56 55)
(57 56)
(58 57)
(59 58)
(60 59)
(61 60)
(62 61)
(63 62)
(64 63)
(65 64)
(66 65)
(67 66)
(68 67)
(69 68)
(70 69)
(71 70)
(72 71)
(73 72)
(74 73)
(75 74)
(76 75)
(77 76)
(78 77)
(79 78)
(80 79)
(81 80)
(82 81)
(83 82)
(84 83)
(85 84)
(86 85)
(87 86)
(88 87)
(89 88)
(90 89)
(91 90)
(92 91)
(93 92)
(94 93)
(95 94)
(96 95)
(97 96)
(98 97)
(99 98)
(100 99)
(101 100)
(102 101)
(103 102)
(104 103)
(105 104)
(106 105)
(107 106)
(108 107)
(109 108)
(110 109)
(111 110)
(112 111)
(113 112)
(114 113)
(115 114)
(116 115)
(117 116)
(118 117)
(119 118)
(120 119)
(121 120)
(122 121)
(123 122)
(124 123)
(125 124)
(126 125)
(127 126)
(128 127)
(129 128)
(130 129)
(131 130)
(132 131)
(133 132)
(134 133)
(135 134)
(136 135)
(137 136)
(138 137)
(139 138)
(140 139)
(141 140)
(142 141)
(143 142)
(144 143)
(145 144)
(146 145)
(147 146)
(148 147)
(149 148)
(150 149)
(151 150)
(152 151)
(153 152)
(154 153)
(155 154)
(156 155)
(157 156)
(158 157)
(159 158)
(160 159)
(161 160)
(162 161)
(163 162)
(164 163)
(165 164)
(166 165)
(167 166)
(168 167)
(169 168)
(170 169)
(171 170)
(172 171)
(173 172)
(174 173)
(175 174)
(176 175)
(177 176)
(1 177)
(178 179)
(180 178)
(181 180)
(182 181)
(183 182)
(184 183)
(185 184)
(186 185)
(187 186)
(188 187)
(189 188)
(190 189)
(191 190)
(192 191)
(193 192)
(194 193)
(195 194)
(196 195)
(197 196)
(198 197)
(199 198)
(200 199)
(201 200)
(202 201)
(203 202)
(204 203)
(205 204)
(206 205)
(207 206)
(208 207)
(209 208)
(210 209)
(211 210)
(212 211)
(213 212)
(214 213)
(215 214)
(216 215)
(217 216)
(218 217)
(219 218)
(220 219)
(221 220)
(222 221)
(223 222)
(224 223)
(225 224)
(226 225)
(227 226)
(228 227)
(229 228)
(230 229)
(231 230)
(232 231)
(233 232)
(234 233)
(235 234)
(236 235)
(237 236)
(238 237)
(239 238)
(240 239)
(241 240)
(242 241)
(243 242)
(244 243)
(245 244)
(246 245)
(247 246)
(248 247)
(249 248)
(250 249)
(251 250)
(252 251)
(253 252)
(254 253)
(255 254)
(256 255)
(257 256)
(258 257)
(259 258)
(260 259)
(261 260)
(262 261)
(263 262)
(264 263)
(265 264)
(266 265)
(267 266)
(268 267)
(269 268)
(270 269)
(271 270)
(272 271)
(273 272)
(274 273)
(275 274)
(276 275)
(277 276)
(278 277)
(279 278)
(280 279)
(281 280)
(282 281)
(283 282)
(284 283)
(285 284)
(286 285)
(287 286)
(288 287)
(289 288)
(290 289)
(291 290)
(292 291)
(293 292)
(294 293)
(295 294)
(296 295)
(297 296)
(298 297)
(299 298)
(300 299)
(301 300)
(302 301)
(303 302)
(304 303)
(305 304)
(306 305)
(307 306)
(308 307)
(309 308)
(310 309)
(311 310)
(312 311)
(313 312)
(314 313)
(315 314)
(316 315)
(317 316)
(318 317)
(319 318)
(320 319)
(321 320)
(322 321)
(323 322)
(324 323)
(325 324)
(326 325)
(327 326)
(328 327)
(329 328)
(330 329)
(331 330)
(332 331)
(333 332)
(334 333)
(335 334)
(336 335)
(337 336)
(338 337)
(339 338)
(340 339)
(341 340)
(342 341)
(343 342)
(344 343)
(345 344)
(346 345)
(347 346)
(348 347)
(349 348)
(350 349)
(351 350)
(352 351)
(353 352)
(354 353)
(355 354)
(179 355)
)

// concaveStart mixedStart nonFeatureStart
0 0 0
// internalStart flatStart openStart multipleStart
356 356 356 356
// normals

708
(
(0.151855 -0.988403 0)
(-0 0 -1)
(0.116906 -0.993143 0)
(0.0817552 -0.996652 0)
(0 0 -1)
(0.0465437 -0.998916 0)
(0 0 -1)
(0.0112515 -0.999937 0)
(0 0 -1)
(-0.0240201 -0.999711 0)
(0 0 -1)
(-0.0593142 -0.998239 0)
(0 0 -1)
(-0.0944842 -0.995526 0)
(0 0 -1)
(-0.129573 -0.99157 0)
(0 0 -1)
(-0.164482 -0.98638 0)
(0 0 -1)
(-0.199187 -0.979962 0)
(0 0 -1)
(-0.23367 -0.972316 0)
(0 0 -1)
(-0.26781 -0.963472 0)
(0 0 -1)
(-0.301665 -0.953414 0)
(0 0 -1)
(-0.335116 -0.942177 0)
(0 0 -1)
(-0.368143 -0.929769 0)
(0 0 -1)
(-0.400742 -0.916191 0)
(0 0 -1)
(-0.432836 -0.901473 0)
(0 0 -1)
(-0.464367 -0.885643 0)
(0 0 -1)
(-0.495331 -0.868705 0)
(0 0 -1)
(-0.525684 -0.85068 0)
(0 0 -1)
(-0.555386 -0.831592 0)
(0 0 -1)
(-0.584386 -0.811476 0)
(0 0 -1)
(-0.612658 -0.790348 0)
(0 0 -1)
(-0.640163 -0.76824 0)
(0 0 -1)
(-0.666876 -0.745169 0)
(0 0 -1)
(-0.692767 -0.721161 0)
(0 0 -1)
(-0.717785 -0.696264 0)
(0 0 -1)
(-0.741901 -0.670509 0)
(0 0 -1)
(-0.765107 -0.643904 0)
(0 0 -1)
(-0.787364 -0.616489 0)
(0 0 -1)
(-0.808619 -0.588332 0)
(0 0 -1)
(-0.828886 -0.559418 0)
(0 0 -1)
(-0.848105 -0.529829 0)
(0 0 -1)
(-0.86628 -0.499558 0)
(0 0 -1)
(-0.883369 -0.468678 0)
(0 0 -1)
(-0.89936 -0.437209 0)
(0 0 -1)
(-0.91423 -0.405195 0)
(0 0 -1)
(-0.927955 -0.372693 0)
(0 0 -1)
(-0.940538 -0.33969 0)
(0 0 -1)
(-0.951935 -0.3063 0)
(0 0 -1)
(-0.962154 -0.272505 0)
(0 0 -1)
(-0.97117 -0.238386 0)
(0 0 -1)
(-0.978979 -0.203962 0)
(0 0 -1)
(-0.985565 -0.169298 0)
(0 0 -1)
(-0.990928 -0.134392 0)
(0 0 -1)
(-0.995053 -0.0993408 0)
(0 0 -1)
(-0.997939 -0.0641692 0)
(0 0 -1)
(-0.999582 -0.0288976 0)
(0 0 -1)
(-0.99998 0.00637395 0)
(0 0 -1)
(-0.999131 0.0416869 0)
(0 0 -1)
(-0.997037 0.0769189 0)
(0 0 -1)
(-0.993703 0.112049 0)
(0 0 -1)
(-0.989131 0.14704 0)
(0 0 -1)
(-0.983324 0.181865 0)
(0 0 -1)
(-0.976294 0.216449 0)
(0 0 -1)
(-0.968042 0.25079 0)
(0 0 -1)
(-0.958596 0.284769 0)
(0 0 -1)
(-0.947943 0.31844 0)
(0 0 -1)
(-0.936116 0.35169 0)
(0 0 -1)
(-0.92312 0.384511 0)
(0 0 -1)
(-0.908975 0.416851 0)
(0 0 -1)
(-0.8937 0.448665 0)
(0 0 -1)
(-0.877308 0.479927 0)
(0 0 -1)
(-0.859826 0.510587 0)
(0 0 -1)
(-0.841269 0.540617 0)
(0 0 -1)
(-0.821662 0.569976 0)
(0 0 -1)
(-0.801036 0.598616 0)
(0 0 -1)
(-0.779418 0.626504 0)
(0 0 -1)
(-0.756813 0.653632 0)
(0 0 -1)
(-0.733281 0.679926 0)
(0 0 -1)
(-0.708834 0.705375 0)
(0 0 -1)
(-0.683489 0.729961 0)
(0 0 -1)
(-0.657302 0.753627 0)
(0 0 -1)
(-0.630302 0.77635 0)
(0 0 -1)
(-0.602504 0.798116 0)
(0 0 -1)
(-0.573965 0.81888 0)
(0 0 -1)
(-0.544706 0.838627 0)
(0 0 -1)
(-0.514774 0.857326 0)
(0 0 -1)
(-0.484199 0.874958 0)
(0 0 -1)
(-0.453014 0.891503 0)
(0 0 -1)
(-0.421262 0.906939 0)
(0 0 -1)
(-0.389006 0.921235 0)
(0 0 -1)
(-0.356242 0.934394 0)
(0 0 -1)
(-0.323054 0.946381 0)
(0 0 -1)
(-0.289444 0.957195 0)
(0 0 -1)
(-0.255485 0.966813 0)
(0 0 -1)
(-0.221204 0.975228 0)
(0 0 -1)
(-0.186661 0.982424 0)
(0 0 -1)
(-0.151855 0.988403 0)
(0 0 -1)
(-0.116906 0.993143 0)
(-0.0817552 0.996652 0)
(0 0 -1)
(-0.0465437 0.998916 0)
(0 0 -1)
(-0.0112515 0.999937 0)
(0 0 -1)
(0.0240201 0.999711 -0)
(-0 0 -1)
(0.0593142 0.998239 -0)
(-0 0 -1)
(0.0944842 0.995526 -0)
(-0 0 -1)
(0.129573 0.99157 -0)
(-0 0 -1)
(0.164482 0.98638 -0)
(-0 0 -1)
(0.199187 0.979962 -0)
(-0 0 -1)
(0.23367 0.972316 -0)
(-0 0 -1)
(0.26781 0.963472 -0)
(-0 0 -1)
(0.301665 0.953414 -0)
(-0 0 -1)
(0.335116 0.942177 -0)
(-0 0 -1)
(0.368143 0.929769 -0)
(-0 0 -1)
(0.400742 0.916191 -0)
(-0 0 -1)
(0.432836 0.901473 -0)
(-0 0 -1)
(0.464367 0.885643 -0)
(-0 0 -1)
(0.495331 0.868705 -0)
(-0 0 -1)
(0.525684 0.85068 -0)
(-0 0 -1)
(0.555386 0.831592 -0)
(-0 0 -1)
(0.584386 0.811476 -0)
(-0 0 -1)
(0.612658 0.790348 -0)
(-0 0 -1)
(0.640163 0.76824 -0)
(-0 0 -1)
(0.666876 0.745169 -0)
(-0 0 -1)
(0.692767 0.721161 -0)
(-0 0 -1)
(0.717785 0.696264 -0)
(-0 0 -1)
(0.741901 0.670509 -0)
(-0 0 -1)
(0.765107 0.643904 -0)
(-0 0 -1)
(0.787364 0.616489 -0)
(-0 0 -1)
(0.808619 0.588332 -0)
(-0 0 -1)
(0.828886 0.559418 -0)
(-0 0 -1)
(0.848105 0.529829 -0)
(-0 0 -1)
(0.86628 0.499558 -0)
(-0 0 -1)
(0.883369 0.468678 -0)
(-0 0 -1)
(0.89936 0.437209 -0)
(-0 0 -1)
(0.91423 0.405195 -0)
(-0 0 -1)
(0.927955 0.372693 -0)
(-0 0 -1)
(0.940538 0.33969 -0)
(-0 0 -1)
(0.951935 0.3063 -0)
(-0 0 -1)
(0.962154 0.272505 -0)
(-0 0 -1)
(0.97117 0.238386 -0)
(-0 0 -1)
(0.978979 0.203962 -0)
(-0 0 -1)
(0.985565 0.169298 -0)
(-0 0 -1)
(0.990928 0.134392 -0)
(-0 0 -1)
(0.995053 0.0993408 -0)
(-0 0 -1)
(0.997939 0.0641692 -0)
(-0 0 -1)
(0.999582 0.0288976 -0)
(-0 0 -1)
(0.99998 -0.00637395 0)
(-0 0 -1)
(0.999131 -0.0416869 0)
(-0 0 -1)
(0.997037 -0.0769189 0)
(-0 0 -1)
(0.993703 -0.112049 0)
(-0 0 -1)
(0.989131 -0.14704 0)
(-0 0 -1)
(0.983324 -0.181865 0)
(-0 0 -1)
(0.976294 -0.216449 0)
(-0 0 -1)
(0.968042 -0.25079 0)
(-0 0 -1)
(0.958596 -0.284769 0)
(-0 0 -1)
(0.947943 -0.31844 0)
(-0 0 -1)
(0.936116 -0.35169 0)
(-0 0 -1)
(0.92312 -0.384511 0)
(-0 0 -1)
(0.908975 -0.416851 0)
(-0 0 -1)
(0.8937 -0.448665 0)
(-0 0 -1)
(0.877308 -0.479927 0)
(-0 0 -1)
(0.859826 -0.510587 0)
(-0 0 -1)
(0.841269 -0.540617 0)
(-0 0 -1)
(0.821662 -0.569976 0)
(-0 0 -1)
(0.801036 -0.598616 0)
(-0 0 -1)
(0.779418 -0.626504 0)
(-0 0 -1)
(0.756813 -0.653632 0)
(-0 0 -1)
(0.733281 -0.679926 0)
(-0 0 -1)
(0.708834 -0.705375 0)
(-0 0 -1)
(0.683489 -0.729961 0)
(-0 0 -1)
(0.657302 -0.753627 0)
(-0 0 -1)
(0.630302 -0.77635 0)
(-0 0 -1)
(0.602504 -0.798116 0)
(-0 0 -1)
(0.573965 -0.81888 0)
(-0 0 -1)
(0.544706 -0.838627 0)
(-0 0 -1)
(0.514774 -0.857326 0)
(-0 0 -1)
(0.484199 -0.874958 0)
(-0 0 -1)
(0.453014 -0.891503 0)
(-0 0 -1)
(0.421262 -0.906939 0)
(-0 0 -1)
(0.389006 -0.921235 0)
(-0 0 -1)
(0.356242 -0.934394 0)
(-0 0 -1)
(0.323054 -0.946381 0)
(-0 0 -1)
(0.289444 -0.957195 0)
(-0 0 -1)
(0.255485 -0.966813 0)
(-0 0 -1)
(0.221204 -0.975228 0)
(-0 0 -1)
(0.186661 -0.982424 0)
(-0 0 -1)
(0.116906 -0.993143 0)
(0 -0 1)
(0.151855 -0.988403 0)
(0.186661 -0.982424 0)
(0 0 1)
(0.221204 -0.975228 0)
(0 0 1)
(0.255485 -0.966813 0)
(0 0 1)
(0.289444 -0.957195 0)
(0 0 1)
(0.323054 -0.946381 0)
(0 0 1)
(0.356242 -0.934394 0)
(0 0 1)
(0.389006 -0.921235 0)
(0 0 1)
(0.421262 -0.906939 0)
(0 0 1)
(0.453014 -0.891503 0)
(0 0 1)
(0.484199 -0.874958 0)
(0 0 1)
(0.514774 -0.857326 0)
(0 0 1)
(0.544706 -0.838627 0)
(0 0 1)
(0.573965 -0.81888 0)
(0 0 1)
(0.602504 -0.798116 0)
(0 0 1)
(0.630302 -0.77635 0)
(0 0 1)
(0.657302 -0.753627 0)
(0 0 1)
(0.683489 -0.729961 0)
(0 0 1)
(0.708834 -0.705375 0)
(0 0 1)
(0.733281 -0.679926 0)
(0 0 1)
(0.756813 -0.653632 0)
(0 0 1)
(0.779418 -0.626504 0)
(0 0 1)
(0.801036 -0.598616 0)
(0 0 1)
(0.821662 -0.569976 0)
(0 0 1)
(0.841269 -0.540617 0)
(0 0 1)
(0.859826 -0.510587 0)
(0 0 1)
(0.877308 -0.479927 0)
(0 0 1)
(0.8937 -0.448665 0)
(0 0 1)
(0.908975 -0.416851 0)
(0 0 1)
(0.92312 -0.384511 0)
(0 0 1)
(0.936116 -0.35169 0)
(0 0 1)
(0.947943 -0.31844 0)
(0 0 1)
(0.958596 -0.284769 0)
(0 0 1)
(0.968042 -0.25079 0)
(0 0 1)
(0.976294 -0.216449 0)
(0 0 1)
(0.983324 -0.181865 0)
(0 0 1)
(0.989131 -0.14704 0)
(0 0 1)
(0.993703 -0.112049 0)
(0 0 1)
(0.997037 -0.0769189 0)
(0 0 1)
(0.999131 -0.0416869 0)
(0 0 1)
(0.99998 -0.00637395 0)
(0 0 1)
(0.999582 0.0288976 0)
(0 0 1)
(0.997939 0.0641692 0)
(0 0 1)
(0.995053 0.0993408 0)
(0 0 1)
(0.990928 0.134392 0)
(0 0 1)
(0.985565 0.169298 0)
(0 0 1)
(0.978979 0.203962 0)
(0 0 1)
(0.97117 0.238386 0)
(0 0 1)
(0.962154 0.272505 0)
(0 0 1)
(0.951935 0.3063 0)
(0 0 1)
(0.940538 0.33969 0)
(0 0 1)
(0.927955 0.372693 0)
(0 0 1)
(0.91423 0.405195 0)
(0 0 1)
(0.89936 0.437209 0)
(0 0 1)
(0.883369 0.468678 0)
(0 0 1)
(0.86628 0.499558 0)
(0 0 1)
(0.848105 0.529829 0)
(0 0 1)
(0.828886 0.559418 0)
(0 0 1)
(0.808619 0.588332 0)
(0 0 1)
(0.787364 0.616489 0)
(0 0 1)
(0.765107 0.643904 0)
(0 0 1)
(0.741901 0.670509 0)
(0 0 1)
(0.717785 0.696264 0)
(0 0 1)
(0.692767 0.721161 0)
(0 0 1)
(0.666876 0.745169 0)
(0 0 1)
(0.640163 0.76824 0)
(0 0 1)
(0.612658 0.790348 0)
(0 0 1)
(0.584386 0.811476 0)
(0 0 1)
(0.555386 0.831592 0)
(0 0 1)
(0.525684 0.85068 0)
(0 0 1)
(0.495331 0.868705 0)
(0 0 1)
(0.464367 0.885643 0)
(0 0 1)
(0.432836 0.901473 0)
(0 0 1)
(0.400742 0.916191 0)
(0 0 1)
(0.368143 0.929769 0)
(0 0 1)
(0.335116 0.942177 0)
(0 0 1)
(0.301665 0.953414 0)
(0 0 1)
(0.26781 0.963472 0)
(0 0 1)
(0.23367 0.972316 0)
(0 0 1)
(0.199187 0.979962 0)
(0 0 1)
(0.164482 0.98638 0)
(0 0 1)
(0.129573 0.99157 0)
(0 0 1)
(0.0944842 0.995526 0)
(0 0 1)
(0.0593142 0.998239 0)
(0 0 1)
(0.0240201 0.999711 0)
(0 0 1)
(-0.0112515 0.999937 0)
(0 0 1)
(-0.0465437 0.998916 0)
(0 0 1)
(-0.0817552 0.996652 0)
(0 0 1)
(-0.116906 0.993143 0)
(0 0 1)
(-0.151855 0.988403 0)
(-0.186661 0.982424 0)
(0 0 1)
(-0.221204 0.975228 0)
(0 0 1)
(-0.255485 0.966813 0)
(0 0 1)
(-0.289444 0.957195 0)
(0 0 1)
(-0.323054 0.946381 0)
(0 0 1)
(-0.356242 0.934394 0)
(0 0 1)
(-0.389006 0.921235 0)
(0 0 1)
(-0.421262 0.906939 0)
(0 0 1)
(-0.453014 0.891503 0)
(0 0 1)
(-0.484199 0.874958 0)
(0 0 1)
(-0.514774 0.857326 0)
(0 0 1)
(-0.544706 0.838627 0)
(0 0 1)
(-0.573965 0.81888 0)
(0 0 1)
(-0.602504 0.798116 0)
(0 0 1)
(-0.630302 0.77635 0)
(0 0 1)
(-0.657302 0.753627 0)
(0 0 1)
(-0.683489 0.729961 0)
(0 0 1)
(-0.708834 0.705375 0)
(0 0 1)
(-0.733281 0.679926 0)
(0 0 1)
(-0.756813 0.653632 0)
(0 0 1)
(-0.779418 0.626504 0)
(0 0 1)
(-0.801036 0.598616 0)
(0 0 1)
(-0.821662 0.569976 0)
(0 0 1)
(-0.841269 0.540617 0)
(0 0 1)
(-0.859826 0.510587 0)
(0 0 1)
(-0.877308 0.479927 0)
(0 0 1)
(-0.8937 0.448665 0)
(0 0 1)
(-0.908975 0.416851 0)
(0 0 1)
(-0.92312 0.384511 0)
(0 0 1)
(-0.936116 0.35169 0)
(0 0 1)
(-0.947943 0.31844 0)
(0 0 1)
(-0.958596 0.284769 0)
(0 0 1)
(-0.968042 0.25079 0)
(0 0 1)
(-0.976294 0.216449 0)
(0 0 1)
(-0.983324 0.181865 0)
(0 0 1)
(-0.989131 0.14704 0)
(0 0 1)
(-0.993703 0.112049 0)
(0 0 1)
(-0.997037 0.0769189 0)
(0 0 1)
(-0.999131 0.0416869 0)
(0 0 1)
(-0.99998 0.00637395 0)
(0 0 1)
(-0.999582 -0.0288976 -0)
(0 -0 1)
(-0.997939 -0.0641692 -0)
(0 -0 1)
(-0.995053 -0.0993408 -0)
(0 -0 1)
(-0.990928 -0.134392 -0)
(0 -0 1)
(-0.985565 -0.169298 -0)
(0 -0 1)
(-0.978979 -0.203962 -0)
(0 -0 1)
(-0.97117 -0.238386 -0)
(0 -0 1)
(-0.962154 -0.272505 -0)
(0 -0 1)
(-0.951935 -0.3063 -0)
(0 -0 1)
(-0.940538 -0.33969 -0)
(0 -0 1)
(-0.927955 -0.372693 -0)
(0 -0 1)
(-0.91423 -0.405195 -0)
(0 -0 1)
(-0.89936 -0.437209 -0)
(0 -0 1)
(-0.883369 -0.468678 -0)
(0 -0 1)
(-0.86628 -0.499558 -0)
(0 -0 1)
(-0.848105 -0.529829 -0)
(0 -0 1)
(-0.828886 -0.559418 -0)
(0 -0 1)
(-0.808619 -0.588332 -0)
(0 -0 1)
(-0.787364 -0.616489 -0)
(0 -0 1)
(-0.765107 -0.643904 -0)
(0 -0 1)
(-0.741901 -0.670509 -0)
(0 -0 1)
(-0.717785 -0.696264 -0)
(0 -0 1)
(-0.692767 -0.721161 -0)
(0 -0 1)
(-0.666876 -0.745169 -0)
(0 -0 1)
(-0.640163 -0.76824 -0)
(0 -0 1)
(-0.612658 -0.790348 -0)
(0 -0 1)
(-0.584386 -0.811476 -0)
(0 -0 1)
(-0.555386 -0.831592 -0)
(0 -0 1)
(-0.525684 -0.85068 -0)
(0 -0 1)
(-0.495331 -0.868705 -0)
(0 -0 1)
(-0.464367 -0.885643 -0)
(0 -0 1)
(-0.432836 -0.901473 -0)
(0 -0 1)
(-0.400742 -0.916191 -0)
(0 -0 1)
(-0.368143 -0.929769 -0)
(0 -0 1)
(-0.335116 -0.942177 -0)
(0 -0 1)
(-0.301665 -0.953414 -0)
(0 -0 1)
(-0.26781 -0.963472 -0)
(0 -0 1)
(-0.23367 -0.972316 -0)
(0 -0 1)
(-0.199187 -0.979962 -0)
(0 -0 1)
(-0.164482 -0.98638 -0)
(0 -0 1)
(-0.129573 -0.99157 -0)
(0 -0 1)
(-0.0944842 -0.995526 -0)
(0 -0 1)
(-0.0593142 -0.998239 -0)
(0 -0 1)
(-0.0240201 -0.999711 -0)
(0 -0 1)
(0.0112515 -0.999937 0)
(0 -0 1)
(0.0465437 -0.998916 0)
(0 -0 1)
(0.0817552 -0.996652 0)
(0 -0 1)
)

// normal volume types

708
(
0
0
0
0
0
0
0
0
0
0
0
0
0
0
0
0
0
0
0
0
0
0
0
0
0
0
0
0
0
0
0
0
0
0
0
0
0
0
0
0
0
0
0
0
0
0
0
0
0
0
0
0
0
0
0
0
0
0
0
0
0
0
0
0
0
0
0
0
0
0
0
0
0
0
0
0
0
0
0
0
0
0
0
0
0
0
0
0
0
0
0
0
0
0
0
0
0
0
0
0
0
0
0
0
0
0
0
0
0
0
0
0
0
0
0
0
0
0
0
0
0
0
0
0
0
0
0
0
0
0
0
0
0
0
0
0
0
0
0
0
0
0
0
0
0
0
0
0
0
0
0
0
0
0
0
0
0
0
0
0
0
0
0
0
0
0
0
0
0
0
0
0
0
0
0
0
0
0
0
0
0
0
0
0
0
0
0
0
0
0
0
0
0
0
0
0
0
0
0
0
0
0
0
0
0
0
0
0
0
0
0
0
0
0
0
0
0
0
0
0
0
0
0
0
0
0
0
0
0
0
0
0
0
0
0
0
0
0
0
0
0
0
0
0
0
0
0
0
0
0
0
0
0
0
0
0
0
0
0
0
0
0
0
0
0
0
0
0
0
0
0
0
0
0
0
0
0
0
0
0
0
0
0
0
0
0
0
0
0
0
0
0
0
0
0
0
0
0
0
0
0
0
0
0
0
0
0
0
0
0
0
0
0
0
0
0
0
0
0
0
0
0
0
0
0
0
0
0
0
0
0
0
0
0
0
0
0
0
0
0
0
0
0
0
0
0
0
0
0
0
0
0
0
0
0
0
0
0
0
0
0
0
0
0
0
0
0
0
0
0
0
0
0
0
0
0
0
0
0
0
0
0
0
0
0
0
0
0
0
0
0
0
0
0
0
0
0
0
0
0
0
0
0
0
0
0
0
0
0
0
0
0
0
0
0
0
0
0
0
0
0
0
0
0
0
0
0
0
0
0
0
0
0
0
0
0
0
0
0
0
0
0
0
0
0
0
0
0
0
0
0
0
0
0
0
0
0
0
0
0
0
0
0
0
0
0
0
0
0
0
0
0
0
0
0
0
0
0
0
0
0
0
0
0
0
0
0
0
0
0
0
0
0
0
0
0
0
0
0
0
0
0
0
0
0
0
0
0
0
0
0
0
0
0
0
0
0
0
0
0
0
0
0
0
0
0
0
0
0
0
0
0
0
0
0
0
0
0
0
0
0
0
0
0
0
0
0
0
0
0
0
0
0
0
0
0
0
0
0
0
0
0
0
0
0
0
0
0
0
0
0
0
0
0
0
0
0
0
0
0
0
0
0
0
0
0
0
0
0
0
0
0
0
0
0
0
0
0
0
0
0
0
0
0
0
0
0
0
0
0
0
0
0
0
0
0
0
0
0
0
0
0
0
0
0
0
0
0
0
0
0
0
0
0
0
0
0
0
0
0
0
0
0
0
0
0
0
0
0
0
0
0
0
0
0
0
0
0
0
0
0
0
0
0
0
0
0
0
0
0
0
0
0
0
0
0
0
0
0
0
0
0
0
0
0
0
0
0
0
0
0
0
0
0
0
0
0
0
0
0
0
0
0
0
0
0
0
0
)

// normalDirections

356
(
2(1 -1)
2(1 -1)
2(1 -1)
2(1 -1)
2(1 -1)
2(1 -1)
2(1 -1)
2(1 -1)
2(1 -1)
2(1 -1)
2(1 -1)
2(1 -1)
2(1 -1)
2(1 -1)
2(1 -1)
2(1 -1)
2(1 -1)
2(1 -1)
2(1 -1)
2(1 -1)
2(1 -1)
2(1 -1)
2(1 -1)
2(1 -1)
2(1 -1)
2(1 -1)
2(1 -1)
2(1 -1)
2(1 -1)
2(1 -1)
2(1 -1)
2(1 -1)
2(1 -1)
2(1 -1)
2(1 -1)
2(1 -1)
2(1 -1)
2(1 -1)
2(1 -1)
2(1 -1)
2(1 -1)
2(1 -1)
2(1 -1)
2(1 -1)
2(1 -1)
2(1 -1)
2(1 -1)
2(1 -1)
2(1 -1)
2(1 -1)
2(1 -1)
2(1 -1)
2(1 -1)
2(1 -1)
2(1 -1)
2(1 -1)
2(1 -1)
2(1 -1)
2(1 -1)
2(1 -1)
2(1 -1)
2(1 -1)
2(1 -1)
2(1 -1)
2(1 -1)
2(1 -1)
2(1 -1)
2(1 -1)
2(1 -1)
2(1 -1)
2(1 -1)
2(1 -1)
2(1 -1)
2(1 -1)
2(1 -1)
2(1 -1)
2(1 -1)
2(1 -1)
2(1 -1)
2(1 -1)
2(1 -1)
2(1 -1)
2(1 -1)
2(1 -1)
2(1 -1)
2(1 -1)
2(1 -1)
2(1 -1)
2(1 -1)
2(1 -1)
2(1 -1)
2(1 -1)
2(1 -1)
2(1 -1)
2(1 -1)
2(1 -1)
2(1 -1)
2(1 -1)
2(1 -1)
2(1 -1)
2(1 -1)
2(1 -1)
2(1 -1)
2(1 -1)
2(1 -1)
2(1 -1)
2(1 -1)
2(1 -1)
2(1 -1)
2(1 -1)
2(1 -1)
2(1 -1)