/*--------------------------------*- C++ -*----------------------------------*\
  =========                 |
  \\      /  F ield         | OpenFOAM: The Open Source CFD Toolbox
   \\    /   O peration     | Website:  https://openfoam.org
    \\  /    A nd           | Version:  7
     \\/     M anipulation  |
\*---------------------------------------------------------------------------*/
FoamFile
{
    version     2.0;
    format      ascii;
    class       extendedFeatureEdgeMesh;
    location    "constant/extendedFeatureEdgeMesh";
    object      Ruehrer1.extendedFeatureEdgeMesh;
}
// * * * * * * * * * * * * * * * * * * * * * * * * * * * * * * * * * * * * * //

// points

134
(
(0.000671989 -0.00495464 0.0303067)
(0.001133 -0.00486994 0.0303067)
(0.000205077 -0.00499579 0.0303067)
(-0.000263638 -0.00499304 0.0303067)
(-0.000730035 -0.00494642 0.0303067)
(-0.00119002 -0.00485632 0.0303067)
(-0.00163954 -0.00472355 0.0303067)
(-0.00207466 -0.00454926 0.0303067)
(-0.00249154 -0.004335 0.0303067)
(-0.00288653 -0.00408264 0.0303067)
(-0.00325615 -0.0037944 0.0303067)
(-0.00359716 -0.00347282 0.0303067)
(-0.00390655 -0.00312072 0.0303067)
(-0.00418161 -0.00274119 0.0303067)
(-0.00441993 -0.00233757 0.0303067)
(-0.0046194 -0.00191341 0.0303067)
(-0.00477828 -0.00147244 0.0303067)
(-0.00489516 -0.00101852 0.0303067)
(-0.00496903 -0.000555655 0.0303067)
(-0.00499923 -8.79062e-05 0.0303067)
(-0.00498549 0.000380615 0.0303067)
(-0.00492794 0.000845792 0.0303067)
(-0.00482709 0.00130353 0.0303067)
(-0.00468381 0.00174982 0.0303067)
(-0.00449938 0.00218073 0.0303067)
(-0.0042754 0.00259248 0.0303067)
(-0.00401385 0.00298144 0.0303067)
(-0.00371703 0.00334421 0.0303067)
(-0.00338754 0.00367758 0.0303067)
(-0.00302828 0.00397863 0.0303067)
(-0.00264241 0.00424472 0.0303067)
(-0.00223331 0.00447351 0.0303067)
(-0.00180459 0.00466299 0.0303067)
(-0.00136002 0.00481148 0.0303067)
(-0.000903486 0.00491769 0.0303067)
(-0.000439016 0.00498069 0.0303067)
(2.93127e-05 0.00499991 0.0303067)
(0.000497383 0.0049752 0.0303067)
(0.000961083 0.00490676 0.0303067)
(0.00141634 0.0047952 0.0303067)
(0.00185914 0.00464151 0.0303067)
(0.00228561 0.00444702 0.0303067)
(0.00269199 0.00421345 0.0303067)
(0.00307472 0.00394285 0.0303067)
(0.00343042 0.00363761 0.0303067)
(0.00375598 0.00330039 0.0303067)
(0.00404853 0.00293418 0.0303067)
(0.0043055 0.00254217 0.0303067)
(0.00452464 0.00212783 0.0303067)
(0.00470401 0.00169479 0.0303067)
(0.00484204 0.00124685 0.0303067)
(0.00493752 0.000787954 0.0303067)
(0.00498961 0.000322135 0.0303067)
(0.00499785 -0.000146515 0.0303067)
(0.00496217 -0.000613878 0.0303067)
(0.00488288 -0.00107585 0.0303067)
(0.00476068 -0.00152836 0.0303067)
(0.00459665 -0.00196744 0.0303067)
(0.00439222 -0.00238923 0.0303067)
(0.00414919 -0.00279003 0.0303067)
(0.00386969 -0.0031663 0.0303067)
(0.00355619 -0.00351476 0.0303067)
(0.00321144 -0.00383232 0.0303067)
(0.00283846 -0.0041162 0.0303067)
(0.00244054 -0.00436391 0.0303067)
(0.00202118 -0.00457328 0.0303067)
(0.00158405 -0.00474245 0.0303067)
(0.000671989 -0.00495464 0.140307)
(0.000205077 -0.00499579 0.140307)
(0.001133 -0.00486994 0.140307)
(0.00158405 -0.00474245 0.140307)
(0.00202118 -0.00457328 0.140307)
(0.00244054 -0.00436391 0.140307)
(0.00283846 -0.0041162 0.140307)
(0.00321144 -0.00383232 0.140307)
(0.00355619 -0.00351476 0.140307)
(0.00386969 -0.0031663 0.140307)
(0.00414919 -0.00279003 0.140307)
(0.00439222 -0.00238923 0.140307)
(0.00459665 -0.00196744 0.140307)
(0.00476068 -0.00152836 0.140307)
(0.00488288 -0.00107585 0.140307)
(0.00496217 -0.000613878 0.140307)
(0.00499785 -0.000146515 0.140307)
(0.00498961 0.000322135 0.140307)
(0.00493752 0.000787954 0.140307)
(0.00484204 0.00124685 0.140307)
(0.00470401 0.00169479 0.140307)
(0.00452464 0.00212783 0.140307)
(0.0043055 0.00254217 0.140307)
(0.00404853 0.00293418 0.140307)
(0.00375598 0.00330039 0.140307)
(0.00343042 0.00363761 0.140307)
(0.00307472 0.00394285 0.140307)
(0.00269199 0.00421345 0.140307)
(0.00228561 0.00444702 0.140307)
(0.00185914 0.00464151 0.140307)
(0.00141634 0.0047952 0.140307)
(0.000961083 0.00490676 0.140307)
(0.000497383 0.0049752 0.140307)
(2.93127e-05 0.00499991 0.140307)
(-0.000439016 0.00498069 0.140307)
(-0.000903486 0.00491769 0.140307)
(-0.00136002 0.00481148 0.140307)
(-0.00180459 0.00466299 0.140307)
(-0.00223331 0.00447351 0.140307)
(-0.00264241 0.00424472 0.140307)
(-0.00302828 0.00397863 0.140307)
(-0.00338754 0.00367758 0.140307)
(-0.00371703 0.00334421 0.140307)
(-0.00401385 0.00298144 0.140307)
(-0.0042754 0.00259248 0.140307)
(-0.00449938 0.00218073 0.140307)
(-0.00468381 0.00174982 0.140307)
(-0.00482709 0.00130353 0.140307)
(-0.00492794 0.000845792 0.140307)
(-0.00498549 0.000380615 0.140307)
(-0.00499923 -8.79062e-05 0.140307)
(-0.00496903 -0.000555655 0.140307)
(-0.00489516 -0.00101852 0.140307)
(-0.00477828 -0.00147244 0.140307)
(-0.0046194 -0.00191341 0.140307)
(-0.00441993 -0.00233757 0.140307)
(-0.00418161 -0.00274119 0.140307)
(-0.00390655 -0.00312072 0.140307)
(-0.00359716 -0.00347282 0.140307)
(-0.00325615 -0.0037944 0.140307)
(-0.00288653 -0.00408264 0.140307)
(-0.00249154 -0.004335 0.140307)
(-0.00207466 -0.00454926 0.140307)
(-0.00163954 -0.00472355 0.140307)
(-0.00119002 -0.00485632 0.140307)
(-0.000730035 -0.00494642 0.140307)
(-0.000263638 -0.00499304 0.140307)
)

// edges

134
(
(0 1)
(2 0)
(3 2)
(4 3)
(5 4)
(6 5)
(7 6)
(8 7)
(9 8)
(10 9)
(11 10)
(12 11)
(13 12)
(14 13)
(15 14)
(16 15)
(17 16)
(18 17)
(19 18)
(20 19)
(21 20)
(22 21)
(23 22)
(24 23)
(25 24)
(26 25)
(27 26)
(28 27)
(29 28)
(30 29)
(31 30)
(32 31)
(33 32)
(34 33)
(35 34)
(36 35)
(37 36)
(38 37)
(39 38)
(40 39)
(41 40)
(42 41)
(43 42)
(44 43)
(45 44)
(46 45)
(47 46)
(48 47)
(49 48)
(50 49)
(51 50)
(52 51)
(53 52)
(54 53)
(55 54)
(56 55)
(57 56)
(58 57)
(59 58)
(60 59)
(61 60)
(62 61)
(63 62)
(64 63)
(65 64)
(66 65)
(1 66)
(67 68)
(69 67)
(70 69)
(71 70)
(72 71)
(73 72)
(74 73)
(75 74)
(76 75)
(77 76)
(78 77)
(79 78)
(80 79)
(81 80)
(82 81)
(83 82)
(84 83)
(85 84)
(86 85)
(87 86)
(88 87)
(89 88)
(90 89)
(91 90)
(92 91)
(93 92)
(94 93)
(95 94)
(96 95)
(97 96)
(98 97)
(99 98)
(100 99)
(101 100)
(102 101)
(103 102)
(104 103)
(105 104)
(106 105)
(107 106)
(108 107)
(109 108)
(110 109)
(111 110)
(112 111)
(113 112)
(114 113)
(115 114)
(116 115)
(117 116)
(118 117)
(119 118)
(120 119)
(121 120)
(122 121)
(123 122)
(124 123)
(125 124)
(126 125)
(127 126)
(128 127)
(129 128)
(130 129)
(131 130)
(132 131)
(133 132)
(68 133)
)

// concaveStart mixedStart nonFeatureStart
0 0 0
// internalStart flatStart openStart multipleStart
134 134 134 134
// normals

264
(
(0.180697 -0.983539 -0.000549562)
(-0 0 -1)
(0.0878047 -0.996138 -0.000549508)
(-0.00586345 -0.999983 -0.000549536)
(0 0 -1)
(-0.099476 -0.99504 -0.000549459)
(0 0 -1)
(-0.192218 -0.981352 -0.000549572)
(0 0 -1)
(-0.283266 -0.959041 -0.000549525)
(0 0 -1)
(-0.371829 -0.928301 -0.000549522)
(0 0 -1)
(-0.457122 -0.889404 -0.00054956)
(0 0 -1)
(-0.538399 -0.84269 -0.000549539)
(0 0 -1)
(-0.614944 -0.788571 -0.00054949)
(0 0 -1)
(-0.686085 -0.727521 -0.000549584)
(0 0 -1)
(-0.751196 -0.660079 -0.000549514)
(0 0 -1)
(-0.809706 -0.586835 -0.000549521)
(0 0 -1)
(-0.8611 -0.508435 -0.000549529)
(0 0 -1)
(-0.904928 -0.425565 -0.000549522)
(0 0 -1)
(-0.940801 -0.338958 -0.000549549)
(0 0 -1)
(-0.968408 -0.249369 -0.000549611)
(0 0 -1)
(-0.987504 -0.157593 -0.000549615)
(0 0 -1)
(-0.997922 -0.0644255 -0.000549528)
(0 0 -1)
(-0.99957 0.0293024 -0.0005496)
(0 0 -1)
(-0.992434 0.122777 -0.000549539)
(0 0 -1)
(-0.976577 0.215168 -0.000549597)
(0 0 -1)
(-0.952136 0.305673 -0.000549595)
(0 0 -1)
(-0.91933 0.393486 -0.000549516)
(0 0 -1)
(-0.878443 0.477847 -0.000549495)
(0 0 -1)
(-0.829837 0.558006 -0.00054962)
(0 0 -1)
(-0.773938 0.633261 -0.000549621)
(0 0 -1)
(-0.711238 0.702951 -0.000549639)
(0 0 -1)
(-0.642287 0.766464 -0.000549635)
(0 0 -1)
(-0.567693 0.82324 -0.000549547)
(0 0 -1)
(-0.48811 0.872782 -0.000549601)
(0 0 -1)
(-0.404234 0.914655 -0.000549564)
(0 0 -1)
(-0.31681 0.948489 -0.000549504)
(0 0 -1)
(-0.226598 0.973988 -0.000549527)
(0 0 -1)
(-0.134397 0.990927 -0.000549553)
(-0.0410163 0.999158 -0.000549617)
(0 0 -1)
(0.0527293 0.998609 -0.000549593)
(-0 0 -1)
(0.146005 0.989284 -0.000549618)
(-0 0 -1)
(0.238004 0.971264 -0.000549525)
(-0 0 -1)
(0.327908 0.944709 -0.000549611)
(-0 0 -1)
(0.414931 0.909853 -0.000549551)
(-0 0 -1)
(0.498309 0.867 -0.000549571)
(-0 0 -1)
(0.577307 0.816527 -0.000549596)
(-0 0 -1)
(0.651229 0.758881 -0.000549574)
(-0 0 -1)
(0.719432 0.694563 -0.000549541)
(-0 0 -1)
(0.78131 0.624144 -0.000549598)
(-0 0 -1)
(0.836322 0.548238 -0.000549587)
(-0 0 -1)
(0.883986 0.467514 -0.000549592)
(-0 0 -1)
(0.92388 0.382682 -0.000549559)
(-0 0 -1)
(0.955655 0.294488 -0.000549548)
(-0 0 -1)
(0.979032 0.203705 -0.000549459)
(-0 0 -1)
(0.993806 0.111129 -0.000549578)
(-0 0 -1)
(0.999845 0.0175824 -0.000549519)
(-0 0 -1)
(0.997098 -0.0761245 -0.000549562)
(-0 0 -1)
(0.985589 -0.169157 -0.000549509)
(-0 0 -1)
(0.965418 -0.260707 -0.000549548)
(-0 0 -1)
(0.936762 -0.349966 -0.000549509)
(-0 0 -1)
(0.899875 -0.436147 -0.00054964)
(-0 0 -1)
(0.855081 -0.518494 -0.000549542)
(-0 0 -1)
(0.80277 -0.596289 -0.000549493)
(-0 0 -1)
(0.743405 -0.668841 -0.000549469)
(-0 0 -1)
(0.677507 -0.735516 -0.000549475)
(-0 0 -1)
(0.605654 -0.795728 -0.000549513)
(-0 0 -1)
(0.528483 -0.848944 -0.000549519)
(-0 0 -1)
(0.446662 -0.894703 -0.000549556)
(-0 0 -1)
(0.360918 -0.932598 -0.000549546)
(-0 0 -1)
(0.272004 -0.962296 -0.000549618)
(-0 0 -1)
(0.0878047 -0.996138 0.000549508)
(0 -0 1)
(0.180697 -0.983539 0.000549562)
(0.272004 -0.962296 0.000549619)
(0 0 1)
(0.360918 -0.932598 0.000549546)
(0 0 1)
(0.446662 -0.894703 0.000549557)
(0 0 1)
(0.528483 -0.848944 0.00054952)
(0 0 1)
(0.605654 -0.795728 0.000549513)
(0 0 1)
(0.677507 -0.735516 0.000549476)
(0 0 1)
(0.743405 -0.668841 0.000549469)
(0 0 1)
(0.80277 -0.596289 0.000549493)
(0 0 1)
(0.855081 -0.518494 0.000549543)
(0 0 1)
(0.899875 -0.436147 0.000549641)
(0 0 1)
(0.936762 -0.349966 0.00054951)
(0 0 1)
(0.965418 -0.260707 0.000549549)
(0 0 1)
(0.985589 -0.169157 0.000549509)
(0 0 1)
(0.997098 -0.0761245 0.000549563)
(0 0 1)
(0.999845 0.0175824 0.000549519)
(0 0 1)
(0.993806 0.111129 0.000549579)
(0 0 1)
(0.979032 0.203705 0.00054946)
(0 0 1)
(0.955655 0.294488 0.000549548)
(0 0 1)
(0.92388 0.382682 0.000549559)
(0 0 1)
(0.883986 0.467514 0.000549592)
(0 0 1)
(0.836322 0.548238 0.000549588)
(0 0 1)
(0.78131 0.624144 0.000549598)
(0 0 1)
(0.719432 0.694563 0.000549541)
(0 0 1)
(0.651229 0.758881 0.000549575)
(0 0 1)
(0.577307 0.816527 0.000549596)
(0 0 1)
(0.498309 0.867 0.000549571)
(0 0 1)
(0.414931 0.909853 0.000549551)
(0 0 1)
(0.327908 0.944709 0.000549611)
(0 0 1)
(0.238004 0.971264 0.000549526)
(0 0 1)
(0.146005 0.989284 0.000549618)
(0 0 1)
(0.0527293 0.998609 0.000549593)
(0 0 1)
(-0.0410163 0.999158 0.000549617)
(0 0 1)
(-0.134397 0.990927 0.000549554)
(-0.226598 0.973988 0.000549527)
(0 0 1)
(-0.31681 0.948489 0.000549505)
(0 0 1)
(-0.404234 0.914655 0.000549565)
(0 0 1)
(-0.48811 0.872782 0.000549602)
(0 0 1)
(-0.567693 0.82324 0.000549548)
(0 0 1)
(-0.642287 0.766464 0.000549635)
(0 0 1)
(-0.711238 0.702951 0.00054964)
(0 0 1)
(-0.773938 0.633261 0.000549622)
(0 0 1)
(-0.829837 0.558006 0.000549621)
(0 0 1)
(-0.878443 0.477847 0.000549496)
(0 0 1)
(-0.91933 0.393486 0.000549516)
(0 0 1)
(-0.952136 0.305673 0.000549596)
(0 0 1)
(-0.976577 0.215168 0.000549598)
(0 0 1)
(-0.992434 0.122777 0.000549539)
(0 0 1)
(-0.99957 0.0293024 0.0005496)
(0 0 1)
(-0.997922 -0.0644255 0.000549528)
(0 -0 1)
(-0.987504 -0.157593 0.000549616)
(0 -0 1)
(-0.968408 -0.249369 0.000549611)
(0 -0 1)
(-0.940801 -0.338958 0.000549549)
(0 -0 1)
(-0.904928 -0.425565 0.000549522)
(0 -0 1)
(-0.8611 -0.508435 0.000549529)
(0 -0 1)
(-0.809706 -0.586835 0.000549521)
(0 -0 1)
(-0.751196 -0.660079 0.000549515)
(0 -0 1)
(-0.686085 -0.727521 0.000549584)
(0 -0 1)
(-0.614944 -0.788571 0.000549491)
(0 -0 1)
(-0.538399 -0.84269 0.000549539)
(0 -0 1)
(-0.457122 -0.889404 0.00054956)
(0 -0 1)
(-0.371829 -0.928301 0.000549522)
(0 -0 1)
(-0.283266 -0.959041 0.000549526)
(0 -0 1)
(-0.192218 -0.981352 0.000549573)
(0 -0 1)
(-0.099476 -0.99504 0.000549459)
(0 -0 1)
(-0.00586345 -0.999983 0.000549537)
(0 -0 1)
)

// normal volume types

264
(
0
0
0
0
0
0
0
0
0
0
0
0
0
0
0
0
0
0
0
0
0
0
0
0
0
0
0
0
0
0
0
0
0
0
0
0
0
0
0
0
0
0
0
0
0
0
0
0
0
0
0
0
0
0
0
0
0
0
0
0
0
0
0
0
0
0
0
0
0
0
0
0
0
0
0
0
0
0
0
0
0
0
0
0
0
0
0
0
0
0
0
0
0
0
0
0
0
0
0
0
0
0
0
0
0
0
0
0
0
0
0
0
0
0
0
0
0
0
0
0
0
0
0
0
0
0
0
0
0
0
0
0
0
0
0
0
0
0
0
0
0
0
0
0
0
0
0
0
0
0
0
0
0
0
0
0
0
0
0
0
0
0
0
0
0
0
0
0
0
0
0
0
0
0
0
0
0
0
0
0
0
0
0
0
0
0
0
0
0
0
0
0
0
0
0
0
0
0
0
0
0
0
0
0
0
0
0
0
0
0
0
0
0
0
0
0
0
0
0
0
0
0
0
0
0
0
0
0
0
0
0
0
0
0
0
0
0
0
0
0
0
0
0
0
0
0
0
0
0
0
0
0
0
0
0
0
0
0
0
0
0
0
0
0
)

// normalDirections

134
(
2(1 -1)
2(1 -1)
2(1 -1)
2(1 -1)
2(1 -1)
2(1 -1)
2(1 -1)
2(1 -1)
2(1 -1)
2(1 -1)
2(1 -1)
2(1 -1)
2(1 -1)
2(1 -1)
2(1 -1)
2(1 -1)
2(1 -1)
2(1 -1)
2(1 -1)
2(1 -1)
2(1 -1)
2(1 -1)
2(1 -1)
2(1 -1)
2(1 -1)
2(1 -1)
2(1 -1)
2(1 -1)
2(1 -1)
2(1 -1)
2(1 -1)
2(1 -1)
2(1 -1)
2(1 -1)
2(1 -1)
2(1 -1)
2(1 -1)
2(1 -1)
2(1 -1)
2(1 -1)
2(1 -1)
2(1 -1)
2(1 -1)
2(1 -1)
2(1 -1)
2(1 -1)
2(1 -1)
2(1 -1)
2(1 -1)
2(1 -1)
2(1 -1)
2(1 -1)
2(1 -1)
2(1 -1)
2(1 -1)
2(1 -1)
2(1 -1)
2(1 -1)
2(1 -1)
2(1 -1)
2(1 -1)
2(1 -1)
2(1 -1)
2(1 -1)
2(1 -1)
2(1 -1)
2(1 -1)
2(1 -1)
2(1 -1)
2(1 -1)
2(1 -1)
2(1 -1)
2(1 -1)
2(1 -1)
2(1 -1)
2(1 -1)
2(1 -1)
2(1 -1)
2(1 -1)
2(1 -1)
2(1 -1)
2(1 -1)
2(1 -1)
2(1 -1)
2(1 -1)
2(1 -1)
2(1 -1)
2(1 -1)
2(1 -1)
2(1 -1)
2(1 -1)
2(1 -1)
2(1 -1)
2(1 -1)
2(1 -1)
2(1 -1)
2(1 -1)
2(1 -1)
2(1 -1)
2(1 -1)
2(1 -1)
2(1 -1)
2(1 -1)
2(1 -1)
2(1 -1)
2(1 -1)
2(1 -1)
2(1 -1)
2(1 -1)
2(1 -1)
2(1 -1)
2(1 -1)
2(1 -1)
2(1 -1)
2(1 -1)
2(1 -1)
2(1 -1)
2(1 -1)
2(1 -1)
2(1 -1)
2(1 -1)
2(1 -1)
2(1 -1)
2(1 -1)
2(1 -1)
2(1 -1)
2(1 -1)
2(1 -1)
2(1 -1)
2(1 -1)
2(1 -1)
2(1 -1)
2(1 -1)
2(1 -1)
)

// edgeNormals

134
(
2(0 1)
2(2 1)
2(3 4)
2(5 6)
2(7 8)
2(9 10)
2(11 12)
2(13 14)
2(15 16)
2(17 18)
2(19 20)
2(21 22)
2(23 24)
2(25 26)
2(27 28)
2(29 30)
2(31 32)
2(33 34)
2(35 36)
2(37 38)
2(39 40)
2(41 42)
2(43 44)
2(45 46)
2(47 48)
2(49 50)
2(51 52)
2(53 54)
2(55 56)
2(57 58)
2(59 60)
2(61 62)
2(63 64)
2(65 66)
2(67 66)
2(68 69)
2(70 71)
2(72 73)
2(74 75)
2(76 77)
2(78 79)
2(80 81)
2(82 83)
2(84 85)
2(86 87)
2(88 89)
2(90 91)
2(92 93)
2(94 95)
2(96 97)
2(98 99)
2(100 101)
2(102 103)
2(104 105)
2(106 107)
2(108 109)
2(110 111)
2(112 113)
2(114 115)
2(116 117)
2(118 119)
2(120 121)
2(122 123)
2(124 125)
2(126 127)
2(128 129)
2(130 131)
2(132 133)
2(134 133)
2(135 136)
2(137 138)
2(139 140)
2(141 142)
2(143 144)
2(145 146)
2(147 148)
2(149 150)
2(151 152)
2(153 154)
2(155 156)
2(157 158)
2(159 160)
2(161 162)
2(163 164)
2(165 166)
2(167 168)
2(169 170)
2(171 172)
2(173 174)
2(175 176)
2(177 178)
2(179 180)
2(181 182)
2(183 184)
2(185 186)
2(187 188)
2(189 190)
2(191 192)
2(193 194)
2(195 196)
2(197 198)
2(199 198)
2(200 201)
2(202 203)
2(204 205)
2(206 207)
2(208 209)
2(210 211)
2(212 213)
2(214 215)
2(216 217)
2(218 219)
2(220 221)
2(222 223)
2(224 225)
2(226 227)
2(228 229)
2(230 231)
2(232 233)
2(234 235)
2(236 237)
2(238 239)
2(240 241)
2(242 243)
2(244 245)
2(246 247)
2(248 249)
2(250 251)
2(252 253)
2(254 255)
2(256 257)
2(258 259)
2(260 261)
2(262 263)
)

// featurePointNormals
0()
// featurePointEdges
0()
// regionEdges
0()


// ************************************************************************* //
