/*--------------------------------*- C++ -*----------------------------------*\
  =========                 |
  \\      /  F ield         | OpenFOAM: The Open Source CFD Toolbox
   \\    /   O peration     | Website:  https://openfoam.org
    \\  /    A nd           | Version:  7
     \\/     M anipulation  |
\*---------------------------------------------------------------------------*/
FoamFile
{
    version     2.0;
    format      ascii;
    class       extendedFeatureEdgeMesh;
    location    "constant/extendedFeatureEdgeMesh";
    object      Ruehrer.extendedFeatureEdgeMesh;
}
// * * * * * * * * * * * * * * * * * * * * * * * * * * * * * * * * * * * * * //

// points

747
(
(0.00469385 -0.00172272 0.0213067)
(0.0033788 0.00687635 0.016778)
(0.00785169 0.00151659 0.0237589)
(0.00694557 0.00260237 0.0251731)
(0.00247267 0.00796214 0.0181922)
(0.00565908 -0.00612246 0.0181922)
(-0.00383884 -0.00320364 0.0213067)
(-0.00121906 -0.00731623 0.0251731)
(-0.00813175 -0.00183967 0.0181922)
(-0.000855011 0.00492635 0.0213067)
(-0.00572651 0.00471385 0.0251731)
(0.0042657 -0.0063643 0.016778)
(-0.00261245 -0.00755806 0.0237589)
(-0.00383884 -0.00320364 0.0203067)
(0.00469385 -0.00172272 0.0203067)
(-0.00764449 -0.000512052 0.016778)
(-0.00523925 0.00604147 0.0237589)
(-0.000855011 0.00492635 0.0203067)
(0.00383884 0.00320364 0.0203067)
(0.00383884 0.00320364 0.0213067)
(-0.000855011 0.00492635 0.0208067)
(0.00475418 -0.0019977 0.0211121)
(0.00481451 -0.00227268 0.0209174)
(0.00553843 -0.0055725 0.0185815)
(0.00541777 -0.00502253 0.0189708)
(0.00529712 -0.00447256 0.0193601)
(0.00523679 -0.00419758 0.0195548)
(0.00517647 -0.00392259 0.0197494)
(0.00511614 -0.00364761 0.0199441)
(0.00505581 -0.00337262 0.0201388)
(0.00499549 -0.00309764 0.0203334)
(0.00493516 -0.00282265 0.0205281)
(0.00487483 -0.00254767 0.0207228)
(-0.00252895 -0.00525993 0.0232399)
(-0.00236522 -0.00551697 0.0234816)
(-0.00269269 -0.00500289 0.0229983)
(-0.00285642 -0.00474586 0.0227566)
(-0.00302016 -0.00448882 0.022515)
(-0.0031839 -0.00423178 0.0222733)
(-0.00334763 -0.00397475 0.0220317)
(-0.00351137 -0.00371771 0.02179)
(-0.00367511 -0.00346067 0.0215484)
(-0.00220148 -0.005774 0.0237232)
(-0.00203774 -0.00603104 0.0239649)
(-0.00187401 -0.00628808 0.0242065)
(-0.00171027 -0.00654511 0.0244482)
(-0.00154653 -0.00680215 0.0246898)
(-0.0013828 -0.00705919 0.0249315)
(-0.00410715 -0.00311839 0.0211121)
(-0.00437545 -0.00303314 0.0209174)
(-0.00759514 -0.00201017 0.0185815)
(-0.00705852 -0.00218067 0.0189708)
(-0.00652191 -0.00235116 0.0193601)
(-0.0062536 -0.00243641 0.0195548)
(-0.0059853 -0.00252166 0.0197494)
(-0.00571699 -0.0026069 0.0199441)
(-0.00544868 -0.00269215 0.0201388)
(-0.00518038 -0.0027774 0.0203334)
(-0.00491207 -0.00286265 0.0205281)
(-0.00464376 -0.00294789 0.0207228)
(-0.00329076 0.0048201 0.0232399)
(-0.00359523 0.00480682 0.0234816)
(-0.00298629 0.00483338 0.0229983)
(-0.00268182 0.00484667 0.0227566)
(-0.00237735 0.00485995 0.022515)
(-0.00207288 0.00487323 0.0222733)
(-0.00176842 0.00488651 0.0220317)
(-0.00146395 0.00489979 0.02179)
(-0.00115948 0.00491307 0.0215484)
(-0.00389969 0.00479354 0.0237232)
(-0.00420416 0.00478026 0.0239649)
(-0.00450863 0.00476698 0.0242065)
(-0.0048131 0.00475369 0.0244482)
(-0.00511757 0.00474041 0.0246898)
(-0.00542204 0.00472713 0.0249315)
(0.00905179 -0.00589931 0.0119828)
(0.00904054 -0.00589674 0.0119935)
(0.00906282 -0.00590426 0.0119728)
(0.00907335 -0.00591146 0.0119637)
(0.00908312 -0.00592073 0.0119556)
(0.00909023 -0.00592874 0.011951)
(0.00909752 -0.00593736 0.0119481)
(0.00910488 -0.00594642 0.0119469)
(0.0091121 -0.00595566 0.0119474)
(0.00911909 -0.00596492 0.0119493)
(0.00912578 -0.00597407 0.0119526)
(0.00913212 -0.00598304 0.011957)
(0.0104897 -0.00573735 0.0133369)
(0.0104871 -0.00574787 0.0133322)
(0.0104912 -0.00572677 0.013342)
(0.0104914 -0.00571627 0.0133473)
(0.0104901 -0.00570601 0.0133528)
(0.0104872 -0.00569617 0.0133585)
(0.0104827 -0.00568707 0.0133642)
(0.0104765 -0.00567889 0.0133698)
(0.0104667 -0.00566962 0.0133779)
(0.0104562 -0.00566243 0.013387)
(0.0104452 -0.00565748 0.0133971)
(0.0104339 -0.00565491 0.0134077)
(0.0104227 -0.00565477 0.0134187)
(0.00902935 -0.0058966 0.0120045)
(-0.00624499 -0.00864612 0.0275539)
(-0.00623894 -0.00865513 0.0275586)
(-0.00624995 -0.00863666 0.0275488)
(-0.00625364 -0.00862683 0.0275436)
(-0.00625587 -0.00861673 0.027538)
(-0.00625646 -0.00860648 0.0275323)
(-0.00625527 -0.00859639 0.0275266)
(-0.00625223 -0.00858662 0.027521)
(-0.00624629 -0.00857481 0.0275131)
(-0.00623898 -0.00856463 0.0275042)
(-0.0062305 -0.00855632 0.0274944)
(-0.00622103 -0.00855007 0.027484)
(-0.0062108 -0.00854604 0.0274732)
(-0.00485885 -0.00834479 0.0289352)
(-0.0048529 -0.00833298 0.0289273)
(-0.00486284 -0.00835473 0.0289399)
(-0.0048668 -0.0083653 0.0289428)
(-0.00487067 -0.00837632 0.0289439)
(-0.00487435 -0.00838745 0.0289435)
(-0.00487781 -0.00839852 0.0289415)
(-0.00488102 -0.0084094 0.0289382)
(-0.00488396 -0.00841997 0.0289338)
(-0.0048456 -0.0083228 0.0289184)
(-0.00483711 -0.00831448 0.0289086)
(-0.00482764 -0.00830824 0.0288982)
(-0.00481742 -0.0083042 0.0288874)
(-0.00276574 -0.00701376 0.0233274)
(-0.00376219 -0.00347579 0.0205225)
(-0.00368554 -0.00374794 0.0207383)
(-0.00360889 -0.00402009 0.020954)
(-0.00353224 -0.00429224 0.0211698)
(-0.00345559 -0.00456439 0.0213855)
(-0.00337894 -0.00483655 0.0216013)
(-0.00330229 -0.0051087 0.0218171)
(-0.00322564 -0.00538085 0.0220328)
(-0.00314899 -0.005653 0.0222486)
(-0.00307234 -0.00592515 0.0224643)
(-0.00299569 -0.0061973 0.0226801)
(-0.00291904 -0.00646945 0.0228959)
(0.00464033 -0.00230291 0.0198656)
(0.00461357 -0.00259301 0.0196451)
(0.00458681 -0.00288311 0.0194245)
(0.00456005 -0.00317321 0.019204)
(0.00453329 -0.00346331 0.0189834)
(0.00450653 -0.00375341 0.0187629)
(0.00447977 -0.00404351 0.0185423)
(0.00445302 -0.00433361 0.0183218)
(0.00442625 -0.00462371 0.0181013)
(0.0043995 -0.0049138 0.0178807)
(0.00437274 -0.0052039 0.0176602)
(0.00434598 -0.005494 0.0174396)
(0.00431922 -0.0057841 0.0172191)
(-0.00963485 -0.00488942 0.0119828)
(-0.009627 -0.00488097 0.0119935)
(-0.00964465 -0.0048965 0.0119728)
(-0.00965615 -0.00490202 0.0119637)
(-0.00966906 -0.00490585 0.0119556)
(-0.00967955 -0.004908 0.011951)
(-0.00969066 -0.00491001 0.0119481)
(-0.0097022 -0.00491185 0.0119469)
(-0.0097138 -0.00491348 0.0119474)
(-0.00972531 -0.0049149 0.0119493)
(-0.00973659 -0.00491612 0.0119526)
(-0.00974752 -0.00491713 0.011957)
(-0.0102136 -0.00621572 0.0133369)
(-0.0102214 -0.00620815 0.0133322)
(-0.0102051 -0.00622229 0.013342)
(-0.0101961 -0.00622767 0.0133473)
(-0.0101866 -0.00623167 0.0133528)
(-0.0101766 -0.00623409 0.0133585)
(-0.0101665 -0.00623472 0.0133642)
(-0.0101563 -0.00623348 0.0133698)
(-0.0101434 -0.00622964 0.0133779)
(-0.0101319 -0.00622412 0.013387)
(-0.0101221 -0.00621704 0.0133971)
(-0.0101143 -0.00620859 0.0134077)
(-0.0101085 -0.00619897 0.0134187)
(-0.00962128 -0.00487135 0.0120045)
(-0.00436527 0.00973138 0.0275539)
(-0.0043761 0.00973064 0.0275586)
(-0.00435459 0.00973095 0.0275488)
(-0.00434423 0.00972922 0.0275436)
(-0.00433437 0.00972611 0.027538)
(-0.0043252 0.0097215 0.0275323)
(-0.00431706 0.00971542 0.0275266)
(-0.00431011 0.0097079 0.027521)
(-0.00430286 0.00969685 0.0275131)
(-0.0042977 0.00968543 0.0275042)
(-0.00429474 0.00967393 0.0274944)
(-0.00429407 0.0096626 0.027484)
(-0.00429569 0.00965173 0.0274732)
(-0.00479737 0.00838028 0.0289352)
(-0.00479012 0.00836923 0.0289273)
(-0.00480399 0.00838871 0.0289399)
(-0.00481116 0.00839742 0.0289428)
(-0.00481877 0.00840628 0.0289439)
(-0.00482657 0.00841503 0.0289435)
(-0.00483443 0.00842356 0.0289415)
(-0.00484224 0.00843178 0.0289382)
(-0.00484993 0.00843962 0.0289338)
(-0.00478495 0.00835781 0.0289184)
(-0.004782 0.00834631 0.0289086)
(-0.00478132 0.00833498 0.0288982)
(-0.00478294 0.00832411 0.0288874)
(-0.00469122 0.00590208 0.0233274)
(-0.00112903 0.00499605 0.0205225)
(-0.00140304 0.00506574 0.0207383)
(-0.00167706 0.00513544 0.020954)
(-0.00195107 0.00520513 0.0211698)
(-0.00222508 0.00527483 0.0213855)
(-0.0024991 0.00534452 0.0216013)
(-0.00277311 0.00541422 0.0218171)
(-0.00304713 0.00548391 0.0220328)
(-0.00332114 0.00555361 0.0222486)
(-0.00359516 0.0056233 0.0224643)
(-0.00386917 0.005693 0.0226801)
(-0.00414319 0.00576269 0.0228959)
(-0.00431455 -0.00286719 0.0198656)
(-0.0045524 -0.00269896 0.0196451)
(-0.00479025 -0.00253074 0.0194245)
(-0.00502811 -0.00236252 0.019204)
(-0.00526596 -0.00219429 0.0189834)
(-0.00550381 -0.00202607 0.0187629)
(-0.00574167 -0.00185784 0.0185423)
(-0.00597952 -0.00168962 0.0183218)
(-0.00621737 -0.0015214 0.0181013)
(-0.00645523 -0.00135317 0.0178807)
(-0.00669308 -0.00118495 0.0176602)
(-0.00693093 -0.00101672 0.0174396)
(-0.00716879 -0.0008485 0.0172191)
(0.00484821 -0.00122264 0.0303067)
(0.00477421 -0.00148557 0.0303067)
(0.00490774 -0.000956056 0.0303067)
(0.00495263 -0.000686621 0.0303067)
(0.00498274 -0.000415137 0.0303067)
(0.00499797 -0.000142415 0.0303067)
(0.00499829 0.000130733 0.0303067)
(0.00498369 0.000403491 0.0303067)
(0.00495422 0.000675044 0.0303067)
(0.00490997 0.000944583 0.0303067)
(0.00485106 0.0012113 0.0303067)
(0.00477767 0.00147441 0.0303067)
(0.00469002 0.00173311 0.0303067)
(0.00458838 0.00198664 0.0303067)
(0.00447305 0.00223425 0.0303067)
(0.00434436 0.00247518 0.0303067)
(0.00420271 0.00270873 0.0303067)
(0.00404852 0.0029342 0.0303067)
(0.00388224 0.00315091 0.0303067)
(0.00370438 0.00335821 0.0303067)
(0.00351546 0.00355549 0.0303067)
(0.00331605 0.00374216 0.0303067)
(0.00310675 0.00391767 0.0303067)
(0.00288817 0.00408148 0.0303067)
(0.00266098 0.00423311 0.0303067)
(0.00242584 0.00437211 0.0303067)
(0.00218346 0.00449805 0.0303067)
(0.00193457 0.00461058 0.0303067)
(0.0016799 0.00470934 0.0303067)
(0.00142022 0.00479406 0.0303067)
(0.0011563 0.00486446 0.0303067)
(0.000888933 0.00492034 0.0303067)
(0.000618911 0.00496155 0.0303067)
(0.000347041 0.00498794 0.0303067)
(7.41356e-05 0.00499945 0.0303067)
(-0.000198991 0.00499604 0.0303067)
(-0.000471524 0.00497772 0.0303067)
(-0.00074265 0.00494454 0.0303067)
(-0.00101156 0.00489661 0.0303067)
(-0.00127745 0.00483406 0.0303067)
(-0.00153953 0.00475708 0.0303067)
(-0.00179701 0.00466591 0.0303067)
(-0.00204913 0.00456082 0.0303067)
(-0.00229514 0.00444211 0.0303067)
(-0.00253429 0.00431015 0.0303067)
(-0.00276588 0.00416532 0.0303067)
(-0.00298922 0.00400806 0.0303067)
(-0.00320364 0.00383884 0.0303067)
(-0.00340849 0.00365816 0.0303067)
(-0.00360318 0.00346657 0.0303067)
(-0.00378711 0.00326463 0.0303067)
(-0.00395973 0.00305295 0.0303067)
(-0.00412054 0.00283216 0.0303067)
(-0.00426906 0.00260291 0.0303067)
(-0.00440483 0.0023659 0.0303067)
(-0.00452746 0.00212182 0.0303067)
(-0.00463657 0.00187141 0.0303067)
(-0.00473185 0.00161542 0.0303067)
(-0.00481301 0.00135461 0.0303067)
(-0.0048798 0.00108975 0.0303067)
(-0.00493203 0.000821645 0.0303067)
(-0.00496954 0.000551085 0.0303067)
(-0.00499222 0.00027888 0.0303067)
(-0.005 5.84278e-06 0.0303067)
(-0.00499285 -0.000267212 0.0303067)
(-0.00497081 -0.000539469 0.0303067)
(-0.00493394 -0.000810116 0.0303067)
(-0.00488233 -0.00107835 0.0303067)
(-0.00481616 -0.00134336 0.0303067)
(-0.00473561 -0.00160436 0.0303067)
(-0.00464093 -0.00186057 0.0303067)
(-0.0045324 -0.00211123 0.0303067)
(-0.00441035 -0.00235559 0.0303067)
(-0.00427513 -0.00259293 0.0303067)
(-0.00412715 -0.00282252 0.0303067)
(-0.00396686 -0.00304369 0.0303067)
(-0.00379473 -0.00325577 0.0303067)
(-0.00361127 -0.00345814 0.0303067)
(-0.00341703 -0.00365019 0.0303067)
(-0.0032126 -0.00383134 0.0303067)
(-0.00299858 -0.00400107 0.0303067)
(-0.00277561 -0.00415884 0.0303067)
(-0.00254436 -0.00430421 0.0303067)
(-0.00230551 -0.00443674 0.0303067)
(-0.00205978 -0.00455602 0.0303067)
(-0.00180791 -0.0046617 0.0303067)
(-0.00155064 -0.00475347 0.0303067)
(-0.00128874 -0.00483106 0.0303067)
(-0.001023 -0.00489423 0.0303067)
(-0.000754203 -0.00494279 0.0303067)
(-0.000483156 -0.0049766 0.0303067)
(-0.000210667 -0.00499556 0.0303067)
(6.24511e-05 -0.00499961 0.0303067)
(0.000335383 -0.00498874 0.0303067)
(0.000607313 -0.00496298 0.0303067)
(0.000877432 -0.00492241 0.0303067)
(0.00114493 -0.00486715 0.0303067)
(0.00140901 -0.00479736 0.0303067)
(0.00166889 -0.00471326 0.0303067)
(0.00192379 -0.00461509 0.0303067)
(0.00217294 -0.00450314 0.0303067)
(0.00241561 -0.00437776 0.0303067)
(0.00265108 -0.00423932 0.0303067)
(0.00287863 -0.00408822 0.0303067)
(0.00309758 -0.00392492 0.0303067)
(0.0033073 -0.0037499 0.0303067)
(0.00350714 -0.0035637 0.0303067)
(0.00369652 -0.00336686 0.0303067)
(0.00387487 -0.00315997 0.0303067)
(0.00404165 -0.00294365 0.0303067)
(0.00419637 -0.00271855 0.0303067)
(0.00433856 -0.00248533 0.0303067)
(0.00446781 -0.0022447 0.0303067)
(0.00458373 -0.00199736 0.0303067)
(0.00468596 -0.00174407 0.0303067)
(0.000583061 0.0107887 0.0119828)
(0.000586456 0.0107777 0.0119935)
(0.000581832 0.0108008 0.0119728)
(0.000582799 0.0108135 0.0119637)
(0.000585938 0.0108266 0.0119556)
(0.000589322 0.0108367 0.011951)
(0.00059314 0.0108474 0.0119481)
(0.000597313 0.0108583 0.0119469)
(0.000601701 0.0108691 0.0119474)
(0.000606224 0.0108798 0.0119493)
(0.000610811 0.0108902 0.0119526)
(0.000615402 0.0109002 0.011957)
(-0.00027619 0.0119531 0.0133369)
(-0.000265745 0.011956 0.0133322)
(-0.000286089 0.0119491 0.013342)
(-0.00029526 0.0119439 0.0133473)
(-0.000303492 0.0119377 0.0133528)
(-0.000310569 0.0119302 0.0133585)
(-0.000316188 0.0119218 0.0133642)
(-0.000320188 0.0119124 0.0133698)
(-0.000323327 0.0118993 0.0133779)
(-0.000324294 0.0118866 0.013387)
(-0.000323065 0.0118745 0.0133971)
(-0.00031967 0.0118635 0.0134077)
(-0.000314193 0.0118537 0.0134187)
(0.000591933 0.0107679 0.0120045)
(0.0106103 -0.00108526 0.0275539)
(0.010615 -0.00107551 0.0275586)
(0.0106045 -0.00109428 0.0275488)
(0.0105979 -0.0011024 0.0275436)
(0.0105902 -0.00110938 0.027538)
(0.0105817 -0.00111501 0.0275323)
(0.0105723 -0.00111903 0.0275266)
(0.0105624 -0.00112128 0.027521)
(0.0105492 -0.00112204 0.0275131)
(0.0105367 -0.0011208 0.0275042)
(0.0105252 -0.00111761 0.0274944)
(0.0105151 -0.00111253 0.027484)
(0.0105065 -0.00110569 0.0274732)
(0.00965622 -3.54959e-05 0.0289352)
(0.00964302 -3.62498e-05 0.0289273)
(0.00966682 -3.39798e-05 0.0289399)
(0.00967796 -3.21212e-05 0.0289428)
(0.00968944 -2.99637e-05 0.0289439)
(0.00970091 -2.75884e-05 0.0289435)
(0.00971223 -2.50466e-05 0.0289415)
(0.00972326 -2.23875e-05 0.0289382)
(0.00973389 -1.96527e-05 0.0289338)
(0.00963055 -3.5015e-05 0.0289184)
(0.00961911 -3.18208e-05 0.0289086)
(0.00960897 -2.67428e-05 0.0288982)
(0.00960036 -1.99012e-05 0.0288874)
(0.00354548 0.00331131 0.0213067)
(0.00325211 0.00341898 0.0213067)
(0.00295874 0.00352665 0.0213067)
(0.00266538 0.00363432 0.0213067)
(0.00207865 0.00384966 0.0213067)
(0.00149192 0.00406499 0.0213067)
(0.000905184 0.00428033 0.0213067)
(0.000318453 0.00449567 0.0213067)
(-0.000268279 0.00471101 0.0213067)
(0.00237201 0.00374199 0.0203067)
(0.0025187 0.00368815 0.0203067)
(0.00266538 0.00363432 0.0203067)
(0.00281206 0.00358048 0.0203067)
(0.00295874 0.00352665 0.0203067)
(0.00310543 0.00347281 0.0203067)
(0.00325211 0.00341898 0.0203067)
(0.00339879 0.00336514 0.0203067)
(0.00354548 0.00331131 0.0203067)
(0.00369216 0.00325747 0.0203067)
(0.00386556 0.00304969 0.0213067)
(0.00389228 0.00289574 0.0203067)
(0.00394572 0.00258784 0.0203067)
(0.00399916 0.00227995 0.0203067)
(0.00405259 0.00197205 0.0203067)
(0.00410603 0.00166415 0.0203067)
(0.00415947 0.00135626 0.0203067)
(0.00421291 0.00104836 0.0203067)
(0.00426635 0.000740461 0.0203067)
(0.00431979 0.000432564 0.0203067)
(0.00437322 0.000124667 0.0203067)
(0.00442666 -0.00018323 0.0203067)
(0.0044801 -0.000491127 0.0203067)
(0.00453354 -0.000799024 0.0203067)
(0.00458698 -0.00110692 0.0203067)
(0.00469385 -0.00172272 0.0208067)
(0.00469385 -0.00172272 0.0210567)
(0.00397244 0.00243389 0.0213067)
(0.00394572 0.00258784 0.0213067)
(0.003919 0.00274179 0.0213067)
(0.00389228 0.00289574 0.0213067)
(0.00762516 0.00178803 0.0241125)
(0.00745696 0.00111167 0.0233274)
(0.00765433 0.00131413 0.0235432)
(0.0066641 0.00206174 0.0246898)
(0.00652337 0.00179142 0.0244482)
(0.00739863 0.00205948 0.024466)
(0.0071721 0.00233093 0.0248196)
(0.00680484 0.00233206 0.0249315)
(0.00638264 0.0015211 0.0242065)
(0.0072596 0.000909217 0.0231116)
(0.00624191 0.00125078 0.0239649)
(0.00706223 0.00070676 0.0228959)
(0.00610118 0.000980465 0.0237232)
(0.00686487 0.000504304 0.0226801)
(0.00596044 0.000710147 0.0234816)
(0.0066675 0.000301848 0.0224643)
(0.00581971 0.000439829 0.0232399)
(0.00647014 9.93913e-05 0.0222486)
(0.00567898 0.000169511 0.0229983)
(0.00627277 -0.000103065 0.0220328)
(0.00553825 -0.000100807 0.0227566)
(0.00607541 -0.000305521 0.0218171)
(0.00539751 -0.000371125 0.022515)
(0.00587804 -0.000507978 0.0216013)
(0.00525678 -0.000641443 0.0222733)
(0.00568068 -0.000710434 0.0213855)
(0.00511605 -0.000911761 0.0220317)
(0.00548331 -0.00091289 0.0211698)
(0.00497532 -0.00118208 0.02179)
(0.00528595 -0.00111535 0.020954)
(0.00483458 -0.0014524 0.0215484)
(0.00508858 -0.0013178 0.0207383)
(0.00489122 -0.00152026 0.0205225)
(0.00589488 0.00386138 0.0207049)
(0.00617443 0.00352641 0.0211412)
(0.00561534 0.00419635 0.0202686)
(0.00575511 0.00402887 0.0204867)
(0.00645397 0.00319144 0.0215775)
(0.00673352 0.00285647 0.0220138)
(0.00701306 0.0025215 0.0224501)
(0.00729261 0.00218653 0.0228863)
(0.00757215 0.00185156 0.0233226)
(0.00365836 0.00654135 0.0172143)
(0.00311418 0.00675448 0.0169985)
(0.00393793 0.00620635 0.0176506)
(0.0042175 0.00587135 0.0180869)
(0.00449707 0.00553635 0.0185233)
(0.00477664 0.00520135 0.0189596)
(0.0050562 0.00486635 0.0193959)
(0.00519599 0.00469885 0.0196141)
(0.00533577 0.00453135 0.0198323)
(0.00547556 0.00436385 0.0200504)
(-0.000590398 0.00504823 0.0200862)
(-0.000325785 0.0051701 0.0198656)
(-6.11719e-05 0.00529198 0.0196451)
(0.000203441 0.00541385 0.0194245)
(0.000468054 0.00553573 0.019204)
(0.000732667 0.0056576 0.0189834)
(0.00099728 0.00577948 0.0187629)
(0.00126189 0.00590135 0.0185423)
(0.00152651 0.00602323 0.0183218)
(0.00179112 0.0061451 0.0181013)
(0.00205573 0.00626698 0.0178807)
(0.00232034 0.00638885 0.0176602)
(0.00258496 0.00651073 0.0174396)
(0.00284957 0.0066326 0.0172191)
(0.0026992 0.00769069 0.0178386)
(0.00205671 0.00758267 0.0185815)
(0.00226469 0.0077724 0.0183868)
(0.00292573 0.00741924 0.0174851)
(0.00315226 0.0071478 0.0171315)
(0.00184873 0.00739293 0.0187762)
(0.00164075 0.00720319 0.0189708)
(0.00143277 0.00701346 0.0191655)
(0.00122479 0.00682372 0.0193601)
(0.00101681 0.00663398 0.0195548)
(0.00080883 0.00644425 0.0197494)
(0.00060085 0.00625451 0.0199441)
(0.00039287 0.00606477 0.0201388)
(0.00018489 0.00587504 0.0203334)
(-2.30903e-05 0.0056853 0.0205281)
(-0.00023107 0.00549556 0.0207228)
(-0.00043905 0.00530583 0.0209174)
(-0.000647031 0.00511609 0.0211121)
(0.00470921 0.00528214 0.0216828)
(0.00456943 0.00544964 0.0214646)
(0.00442965 0.00561714 0.0212465)
(0.00415008 0.00595214 0.0208101)
(0.0040103 0.00611964 0.020592)
(0.00387051 0.00628714 0.0203738)
(0.00373073 0.00645464 0.0201556)
(0.00359094 0.00662214 0.0199375)
(0.00345116 0.00678964 0.0197193)
(0.00331137 0.00695714 0.0195012)
(0.00317159 0.00712464 0.019283)
(0.00303181 0.00729214 0.0190648)
(0.00289202 0.00745964 0.0188467)
(0.00275224 0.00762714 0.0186285)
(0.00582739 0.00394226 0.023428)
(0.00554785 0.00427723 0.0229917)
(0.00638648 0.00327232 0.0243006)
(0.0052683 0.0046122 0.0225554)
(0.00512853 0.00477969 0.0223372)
(0.00498876 0.00494717 0.0221191)
(0.00484899 0.00511466 0.0219009)
(0.00344009 -0.00362857 0.020955)
(0.0033128 -0.00374517 0.0209695)
(0.00318393 -0.00385533 0.020988)
(0.00305379 -0.00395919 0.0210098)
(0.00292268 -0.0040569 0.0210343)
(0.0027909 -0.00414862 0.0210607)
(0.00265877 -0.0042345 0.0210885)
(0.00252628 -0.00431485 0.021117)
(0.00239259 -0.00439039 0.0211458)
(0.00225774 -0.00446124 0.0211744)
(0.00212186 -0.00452745 0.0212021)
(0.00198508 -0.00458907 0.0212282)
(0.00184753 -0.00464614 0.0212522)
(0.00170935 -0.00469874 0.0212733)
(0.00157033 -0.00474701 0.0212911)
(0.00142992 -0.00479119 0.0213049)
(0.00128816 -0.00483124 0.021314)
(0.00114506 -0.00486714 0.0213178)
(0.00100067 -0.00489885 0.0213156)
(0.000855011 -0.00492635 0.0213067)
(0.000733741 -0.00494586 0.0213309)
(0.00060633 -0.00496309 0.0213651)
(0.00047309 -0.00497756 0.0214078)
(0.000334337 -0.00498881 0.0214573)
(0.00019016 -0.00499638 0.0215122)
(4.01515e-05 -0.00499985 0.0215713)
(-0.000115531 -0.00499868 0.021633)
(-0.000276686 -0.00499234 0.021696)
(-0.000443116 -0.00498033 0.0217589)
(-0.000612494 -0.00496238 0.0218194)
(-0.000781945 -0.00493859 0.0218756)
(-0.00095153 -0.00490878 0.0219266)
(-0.00112132 -0.00487278 0.0219719)
(-0.0012914 -0.00483043 0.0220106)
(-0.00146184 -0.00478154 0.0220421)
(-0.00328601 -0.00376857 0.0217433)
(-0.00340766 -0.00365895 0.0216667)
(-0.00163207 -0.00472615 0.0220656)
(-0.00179979 -0.00466489 0.0220804)
(-0.0019648 -0.00459786 0.0220864)
(-0.00212707 -0.00452507 0.0220835)
(-0.00228661 -0.00444655 0.0220714)
(-0.00244342 -0.00436231 0.02205)
(-0.002597 -0.00427266 0.0220193)
(-0.0027454 -0.00417886 0.02198)
(-0.00288846 -0.00408129 0.0219323)
(-0.00302622 -0.00398021 0.0218767)
(-0.00315874 -0.00387587 0.0218135)
(-0.00352368 -0.00354736 0.0215842)
(-0.00363415 -0.00343409 0.0214963)
(-0.00373917 -0.00331943 0.0214037)
(-0.00486248 -0.00116492 0.020955)
(-0.00489981 -0.000996386 0.0209695)
(-0.00493078 -0.000829704 0.020988)
(-0.00495565 -0.000665065 0.0210098)
(-0.00497472 -0.00050266 0.0210343)
(-0.00498826 -0.000342678 0.0210607)
(-0.00499657 -0.000185308 0.0210885)
(-0.00499991 -3.03969e-05 0.021117)
(-0.00499849 0.000123152 0.0211458)
(-0.00499242 0.000275361 0.0211744)
(-0.00498182 0.000426142 0.0212021)
(-0.00496679 0.000575405 0.0212282)
(-0.00494744 0.000723063 0.0212522)
(-0.0049239 0.000869027 0.0212733)
(-0.0048962 0.00101356 0.0212911)
(-0.00486425 0.00115725 0.0213049)
(-0.00482805 0.00130004 0.021314)
(-0.00478759 0.00144192 0.0213178)
(-0.00474286 0.00158282 0.0213156)
(-0.00469385 0.00172272 0.0213067)
(-0.00465011 0.00183749 0.0213309)
(-0.00460132 0.00195645 0.0213651)
(-0.00454724 0.00207907 0.0214078)
(-0.0044876 0.00220486 0.0214573)
(-0.00442208 0.00233351 0.0215122)
(-0.00435007 0.00246515 0.0215713)
(-0.00427122 0.00259939 0.021633)
(-0.00418516 0.00273579 0.021696)
(-0.00409153 0.00287391 0.0217589)
(-0.0039913 0.00301163 0.0218194)
(-0.00388597 0.00314648 0.0218756)
(-0.00377536 0.00327844 0.0219266)
(-0.00365929 0.00340749 0.0219719)
(-0.00353757 0.0035336 0.0220106)
(-0.00341001 0.00365676 0.0220421)
(-0.00162067 0.00473006 0.0217433)
(-0.00146491 0.00478059 0.0216667)
(-0.00327693 0.00377649 0.0220656)
(-0.00314002 0.00389112 0.0220804)
(-0.00299947 0.00400049 0.0220864)
(-0.00285529 0.00410463 0.0220835)
(-0.00270752 0.00420354 0.0220714)
(-0.00255616 0.00429722 0.02205)
(-0.00240173 0.0043854 0.0220193)
(-0.0022463 0.00446702 0.02198)
(-0.00209027 0.00454213 0.0219323)
(-0.00193385 0.00461089 0.0218767)
(-0.00177723 0.00467349 0.0218135)
(-0.00131027 0.00482527 0.0215842)
(-0.00115694 0.00486431 0.0214963)
(-0.00100512 0.00489793 0.0214037)
(-0.00191575 -0.00743714 0.024466)
(-0.0022641 -0.0074976 0.0241125)
(-0.00156741 -0.00737668 0.0248196)
(0.000803525 -0.00493501 0.0203067)
(0.000855011 -0.00492635 0.0203067)
(0.000650785 -0.00495744 0.0203124)
(0.000497686 -0.00497511 0.0203257)
(0.000344545 -0.00498805 0.0203454)
(0.000191676 -0.00499628 0.0203703)
(-0.000112203 -0.00499874 0.0204313)
(3.93957e-05 -0.00499983 0.0203993)
(-0.000265362 -0.00499296 0.0204657)
(-0.000420629 -0.00498229 0.020502)
(-0.00105987 -0.00488638 0.0206496)
(-0.000897621 -0.00491877 0.020614)
(-0.000736903 -0.00494541 0.020577)
(-0.000577857 -0.00496651 0.0205394)
(0.00100165 -0.00489862 0.0202989)
(0.00114689 -0.00486661 0.0202808)
(0.00128957 -0.00483056 0.0202549)
(0.00143032 -0.00479031 0.0202232)
(0.00156942 -0.00474579 0.0201871)
(0.00385456 -0.00314051 0.0197772)
(0.00396323 -0.0030063 0.0198007)
(0.00406693 -0.00286962 0.019831)
(0.00416554 -0.00273065 0.0198681)
(0.00425892 -0.00258957 0.019912)
(0.0017065 -0.0046971 0.0201482)
(0.00184386 -0.00464331 0.020107)
(0.00198301 -0.00458355 0.0200641)
(0.00212388 -0.00451746 0.0200204)
(0.00226636 -0.00444466 0.0199769)
(0.00241039 -0.00436481 0.0199345)
(0.00255584 -0.00427755 0.0198941)
(0.00269998 -0.00418435 0.0198574)
(0.00284103 -0.00408637 0.0198254)
(0.002979 -0.00398366 0.0197984)
(0.00311389 -0.00387625 0.0197767)
(0.00324574 -0.0037642 0.0197608)
(0.00337453 -0.00364755 0.0197509)
(0.0035003 -0.00352635 0.0197474)
(0.00362287 -0.0034008 0.0197505)
(0.00374107 -0.00327207 0.0197605)
(0.00434691 -0.00244662 0.0199626)
(0.00442892 -0.00230267 0.0200196)
(0.00450471 -0.00215813 0.0200827)
(0.00457419 -0.00201318 0.0201517)
(0.00463727 -0.00186798 0.0202264)
(0.00531073 -0.00618292 0.0178386)
(0.00496239 -0.00624338 0.0174851)
(0.00461404 -0.00630384 0.0171315)
(-0.00548288 0.00537766 0.024466)
(-0.00536106 0.00570957 0.0241125)
(-0.00560469 0.00504576 0.0248196)
(-0.00467561 0.00177163 0.0203067)
(-0.00469385 0.00172272 0.0203067)
(-0.00461867 0.00191513 0.0203124)
(-0.00455742 0.00205655 0.0203257)
(-0.00449205 0.00219564 0.0203454)
(-0.00442274 0.00233214 0.0203703)
(-0.00427293 0.00259654 0.0204313)
(-0.00434968 0.0024658 0.0203993)
(-0.00419135 0.00272629 0.0204657)
(-0.00410447 0.00285542 0.020502)
(-0.00370179 0.00336106 0.0206496)
(-0.00381097 0.00323675 0.020614)
(-0.0039144 0.00311088 0.020577)
(-0.0040122 0.00298369 0.0205394)
(-0.00474315 0.00158186 0.0202989)
(-0.00478805 0.00144007 0.0202808)
(-0.00482817 0.00129848 0.0202549)
(-0.00486369 0.00115646 0.0202232)
(-0.00489468 0.00101373 0.0201871)
(-0.00464704 -0.00176789 0.0197772)
(-0.00458515 -0.0019291 0.0198007)
(-0.00451863 -0.00208725 0.019831)
(-0.00444758 -0.00224214 0.0198681)
(-0.0043721 -0.00239355 0.019912)
(-0.00492105 0.000870673 0.0201482)
(-0.00494316 0.000724829 0.020107)
(-0.00496098 0.000574439 0.0200641)
(-0.00497417 0.000419399 0.0200204)
(-0.00498237 0.000259603 0.0199769)
(-0.00498523 9.4948e-05 0.0199345)
(-0.00498238 -7.46427e-05 0.0198941)
(-0.00497374 -0.000246078 0.0198574)
(-0.00495942 -0.00041722 0.0198254)
(-0.00493945 -0.000588059 0.0197984)
(-0.00491388 -0.000758585 0.0197767)
(-0.00488276 -0.000928786 0.0197608)
(-0.00484614 -0.00109865 0.0197509)
(-0.00480406 -0.00126818 0.0197474)
(-0.00475662 -0.0014371 0.0197505)
(-0.00470423 -0.00160382 0.0197605)
(-0.00429229 -0.00254123 0.0199626)
(-0.00420863 -0.00268422 0.0200196)
(-0.00412135 -0.00282213 0.0200827)
(-0.00403056 -0.00295478 0.0201517)
(-0.00393635 -0.003082 0.0202264)
(-0.00800994 -0.00150777 0.0178386)
(-0.00788812 -0.00117586 0.0174851)
(-0.00776631 -0.000843958 0.0171315)
)

// edges

751
(
(21 0)
(22 21)
(5 23)
(23 24)
(24 25)
(25 26)
(26 27)
(27 28)
(28 29)
(29 30)
(30 31)
(31 32)
(32 22)
(33 34)
(35 33)
(36 35)
(37 36)
(38 37)
(39 38)
(40 39)
(41 40)
(6 41)
(34 42)
(42 43)
(43 44)
(44 45)
(45 46)
(46 47)
(47 7)
(48 6)
(49 48)
(8 50)
(50 51)
(51 52)
(52 53)
(53 54)
(54 55)
(55 56)
(56 57)
(57 58)
(58 59)
(59 49)
(60 61)
(62 60)
(63 62)
(64 63)
(65 64)
(66 65)
(67 66)
(68 67)
(9 68)
(61 69)
(69 70)
(70 71)
(71 72)
(72 73)
(73 74)
(74 10)
(75 76)
(77 75)
(78 77)
(79 78)
(80 79)
(81 80)
(82 81)
(83 82)
(84 83)
(85 84)
(86 85)
(87 88)
(89 87)
(90 89)
(91 90)
(92 91)
(93 92)
(94 93)
(95 94)
(96 95)
(97 96)
(98 97)
(99 98)
(76 100)
(101 102)
(103 101)
(104 103)
(105 104)
(106 105)
(107 106)
(108 107)
(109 108)
(110 109)
(111 110)
(112 111)
(113 112)
(114 115)
(116 114)
(117 116)
(118 117)
(119 118)
(120 119)
(121 120)
(122 121)
(115 123)
(123 124)
(124 125)
(125 126)
(11 100)
(113 12)
(126 7)
(127 12)
(13 128)
(128 129)
(129 130)
(130 131)
(131 132)
(132 133)
(133 134)
(134 135)
(135 136)
(136 137)
(137 138)
(138 139)
(139 127)
(14 140)
(140 141)
(141 142)
(142 143)
(143 144)
(144 145)
(145 146)
(146 147)
(147 148)
(148 149)
(149 150)
(150 151)
(151 152)
(152 11)
(99 5)
(153 154)
(155 153)
(156 155)
(157 156)
(158 157)
(159 158)
(160 159)
(161 160)
(162 161)
(163 162)
(164 163)
(165 166)
(167 165)
(168 167)
(169 168)
(170 169)
(171 170)
(172 171)
(173 172)
(174 173)
(175 174)
(176 175)
(177 176)
(154 178)
(179 180)
(181 179)
(182 181)
(183 182)
(184 183)
(185 184)
(186 185)
(187 186)
(188 187)
(189 188)
(190 189)
(191 190)
(192 193)
(194 192)
(195 194)
(196 195)
(197 196)
(198 197)
(199 198)
(200 199)
(193 201)
(201 202)
(202 203)
(203 204)
(15 178)
(191 16)
(204 10)
(205 16)
(17 206)
(206 207)
(207 208)
(208 209)
(209 210)
(210 211)
(211 212)
(212 213)
(213 214)
(214 215)
(215 216)
(216 217)
(217 205)
(13 218)
(218 219)
(219 220)
(220 221)
(221 222)
(222 223)
(223 224)
(224 225)
(225 226)
(226 227)
(227 228)
(228 229)
(229 230)
(230 15)
(177 8)
(231 232)
(233 231)
(234 233)
(235 234)
(236 235)
(237 236)
(238 237)
(239 238)
(240 239)
(241 240)
(242 241)
(243 242)
(244 243)
(245 244)
(246 245)
(247 246)
(248 247)
(249 248)
(250 249)
(251 250)
(252 251)
(253 252)
(254 253)
(255 254)
(256 255)
(257 256)
(258 257)
(259 258)
(260 259)
(261 260)
(262 261)
(263 262)
(264 263)
(265 264)
(266 265)
(267 266)
(268 267)
(269 268)
(270 269)
(271 270)
(272 271)
(273 272)
(274 273)
(275 274)
(276 275)
(277 276)
(278 277)
(279 278)
(280 279)
(281 280)
(282 281)
(283 282)
(284 283)
(285 284)
(286 285)
(287 286)
(288 287)
(289 288)
(290 289)
(291 290)
(292 291)
(293 292)
(294 293)
(295 294)
(296 295)
(297 296)
(298 297)
(299 298)
(300 299)
(301 300)
(302 301)
(303 302)
(304 303)
(305 304)
(306 305)
(307 306)
(308 307)
(309 308)
(310 309)
(311 310)
(312 311)
(313 312)
(314 313)
(315 314)
(316 315)
(317 316)
(318 317)
(319 318)
(320 319)
(321 320)
(322 321)
(323 322)
(324 323)
(325 324)
(326 325)
(327 326)
(328 327)
(329 328)
(330 329)
(331 330)
(332 331)
(333 332)
(334 333)
(335 334)
(336 335)
(337 336)
(338 337)
(339 338)
(340 339)
(341 340)
(342 341)
(343 342)
(344 343)
(345 344)
(232 345)
(346 347)
(348 346)
(349 348)
(350 349)
(351 350)
(352 351)
(353 352)
(354 353)
(355 354)
(356 355)
(357 356)