/*--------------------------------*- C++ -*----------------------------------*\
  =========                 |
  \\      /  F ield         | OpenFOAM: The Open Source CFD Toolbox
   \\    /   O peration     | Website:  https://openfoam.org
    \\  /    A nd           | Version:  7
     \\/     M anipulation  |
\*---------------------------------------------------------------------------*/
FoamFile
{
    version     2.0;
    format      ascii;
    class       extendedFeatureEdgeMesh;
    location    "constant/extendedFeatureEdgeMesh";
    object      Sparger.extendedFeatureEdgeMesh;
}
// * * * * * * * * * * * * * * * * * * * * * * * * * * * * * * * * * * * * * //

// points

342
(
(0.00623158 -0.00232576 0.00850732)
(0.00636386 -0.00187737 0.00853673)
(0.00649614 -0.00142898 0.00850732)
(0.00662633 -0.000987667 0.00841955)
(0.00675238 -0.000560381 0.0082748)
(0.0068723 -0.000153865 0.00807535)
(0.00698421 0.000225471 0.00782436)
(0.00708633 0.000571644 0.00752578)
(0.00717706 0.000879194 0.00718432)
(0.00725497 0.00114327 0.00680536)
(0.00731882 0.00135971 0.00639489)
(0.00736761 0.0015251 0.00595936)
(0.00740057 0.00163683 0.00550566)
(0.00741718 0.00169314 0.00504094)
(0.00741718 0.00169314 0.00457252)
(0.00740057 0.00163683 0.0041078)
(0.00736761 0.0015251 0.0036541)
(0.00731882 0.00135971 0.00321857)
(0.00725497 0.00114327 0.0028081)
(0.00717706 0.000879194 0.00242914)
(0.00708633 0.000571644 0.00208768)
(0.00698421 0.000225471 0.0017891)
(0.0068723 -0.000153865 0.00153811)
(0.00675238 -0.000560381 0.00133866)
(0.00662633 -0.000987667 0.00119392)
(0.00649614 -0.00142898 0.00110614)
(0.00636386 -0.00187737 0.00107673)
(0.00623158 -0.00232576 0.00110614)
(0.00610139 -0.00276708 0.00119392)
(0.00597534 -0.00319436 0.00133866)
(0.00585541 -0.00360088 0.00153811)
(0.00574351 -0.00398022 0.0017891)
(0.00564138 -0.00432639 0.00208768)
(0.00555066 -0.00463394 0.00242914)
(0.00547275 -0.00489802 0.0028081)
(0.0054089 -0.00511446 0.00321857)
(0.00536011 -0.00527985 0.0036541)
(0.00532715 -0.00539158 0.0041078)
(0.00531054 -0.00544789 0.00457252)
(0.00531054 -0.00544789 0.00504094)
(0.00532715 -0.00539158 0.00550566)
(0.00536011 -0.00527985 0.00595936)
(0.0054089 -0.00511446 0.00639489)
(0.00547275 -0.00489802 0.00680536)
(0.00555066 -0.00463394 0.00718432)
(0.00564138 -0.00432639 0.00752578)
(0.00574351 -0.00398022 0.00782436)
(0.00585541 -0.00360088 0.00807535)
(0.00597534 -0.00319436 0.0082748)
(0.00610139 -0.00276708 0.00841955)
(0.00735261 -0.00216906 0.00853673)
(0.00722033 -0.00261745 0.00850732)
(0.00748489 -0.00172067 0.00850732)
(0.00761508 -0.00127935 0.00841955)
(0.00774113 -0.000852068 0.0082748)
(0.00786105 -0.000445551 0.00807535)
(0.00797296 -6.62156e-05 0.00782436)
(0.00807508 0.000279957 0.00752578)
(0.00816581 0.000587507 0.00718432)
(0.00824372 0.000851584 0.00680536)
(0.00830757 0.00106802 0.00639489)
(0.00835636 0.00123341 0.00595936)
(0.00838932 0.00134514 0.00550566)
(0.00840593 0.00140145 0.00504094)
(0.00840593 0.00140145 0.00457252)
(0.00838932 0.00134514 0.0041078)
(0.00835636 0.00123341 0.0036541)
(0.00830757 0.00106802 0.00321857)
(0.00824372 0.000851584 0.0028081)
(0.00816581 0.000587507 0.00242914)
(0.00807508 0.000279957 0.00208768)
(0.00797296 -6.62156e-05 0.0017891)
(0.00786105 -0.000445551 0.00153811)
(0.00774113 -0.000852068 0.00133866)
(0.00761508 -0.00127935 0.00119392)
(0.00748489 -0.00172067 0.00110614)
(0.00735261 -0.00216906 0.00107673)
(0.00722033 -0.00261745 0.00110614)
(0.00709014 -0.00305877 0.00119392)
(0.00696409 -0.00348605 0.00133866)
(0.00684416 -0.00389257 0.00153811)
(0.00673226 -0.0042719 0.0017891)
(0.00663014 -0.00461808 0.00208768)
(0.00653941 -0.00492563 0.00242914)
(0.0064615 -0.0051897 0.0028081)
(0.00639765 -0.00540614 0.00321857)
(0.00634886 -0.00557153 0.0036541)
(0.0063159 -0.00568326 0.0041078)
(0.00629929 -0.00573957 0.00457252)
(0.00629929 -0.00573957 0.00504094)
(0.0063159 -0.00568326 0.00550566)
(0.00634886 -0.00557153 0.00595936)
(0.00639765 -0.00540614 0.00639489)
(0.0064615 -0.0051897 0.00680536)
(0.00653941 -0.00492563 0.00718432)
(0.00663014 -0.00461808 0.00752578)
(0.00673226 -0.0042719 0.00782436)
(0.00684416 -0.00389257 0.00807535)
(0.00696409 -0.00348605 0.0082748)
(0.00709014 -0.00305877 0.00841955)
(0.00621211 -0.00239177 0.00956661)
(0.00636386 -0.00187737 0.00959673)
(0.00651561 -0.00136298 0.00956661)
(0.00606227 -0.00289969 0.00947663)
(0.00591622 -0.00339476 0.00932793)
(0.0057758 -0.00387075 0.00912237)
(0.00564278 -0.00432166 0.00886254)
(0.00551882 -0.00474184 0.0085517)
(0.00540549 -0.005126 0.00819377)
(0.00530422 -0.00546931 0.00779325)
(0.00521627 -0.00576744 0.00735516)
(0.00514275 -0.00601665 0.00688503)
(0.00508458 -0.00621381 0.00638877)
(0.00504251 -0.00635644 0.00587261)
(0.00501705 -0.00644274 0.00534304)
(0.00500853 -0.00647163 0.00480673)
(0.00501705 -0.00644274 0.00427042)
(0.00504251 -0.00635644 0.00374086)
(0.00508458 -0.00621381 0.00322469)
(0.00514275 -0.00601665 0.00272843)
(0.00521627 -0.00576744 0.0022583)
(0.00530422 -0.00546931 0.00182022)
(0.00540549 -0.005126 0.00141969)
(0.00551882 -0.00474184 0.00106176)
(0.00564278 -0.00432166 0.000750922)
(0.0057758 -0.00387075 0.00049109)
(0.00591622 -0.00339476 0.00028553)
(0.00606227 -0.00289969 0.000136826)
(0.00621211 -0.00239177 4.68492e-05)
(0.00636386 -0.00187737 1.67307e-05)
(0.00651561 -0.00136298 4.68492e-05)
(0.00666545 -0.000855055 0.000136826)
(0.0068115 -0.000359987 0.00028553)
(0.00695191 0.000116 0.00049109)
(0.00708494 0.000566918 0.000750922)
(0.00720889 0.000987098 0.00106176)
(0.00732222 0.00137126 0.00141969)
(0.0074235 0.00171456 0.00182022)
(0.00751145 0.00201269 0.0022583)
(0.00758497 0.00226191 0.00272843)
(0.00764313 0.00245907 0.00322469)
(0.00768521 0.00260169 0.00374086)
(0.00771067 0.00268799 0.00427042)
(0.00771919 0.00271688 0.00480673)
(0.00771067 0.00268799 0.00534304)
(0.00768521 0.00260169 0.00587261)
(0.00764313 0.00245907 0.00638877)
(0.00758497 0.00226191 0.00688503)
(0.00751145 0.00201269 0.00735516)
(0.0074235 0.00171456 0.00779325)
(0.00732222 0.00137126 0.00819377)
(0.00720889 0.000987098 0.0085517)
(0.00708494 0.000566918 0.00886254)
(0.00695191 0.000116 0.00912237)
(0.0068115 -0.000359987 0.00932793)
(0.00666545 -0.000855055 0.00947663)
(0.00636386 -0.00187737 0.00207673)
(0.00647633 -0.00149613 0.00210582)
(0.00625139 -0.00225862 0.00210582)
(0.00614132 -0.00263174 0.00219248)
(0.00603598 -0.00298879 0.00233486)
(0.00593764 -0.00332214 0.00252992)
(0.00584839 -0.00362471 0.0027735)
(0.00577011 -0.00389003 0.00306042)
(0.0057045 -0.00411245 0.00338456)
(0.00565293 -0.00428724 0.00373901)
(0.00561652 -0.00441067 0.00411622)
(0.00559604 -0.0044801 0.00450815)
(0.00559192 -0.00449406 0.00490644)
(0.00560425 -0.00445226 0.0053026)
(0.00563278 -0.00435557 0.00568819)
(0.00567688 -0.00420606 0.006055)
(0.00573563 -0.00400692 0.00639521)
(0.00580777 -0.00376239 0.00670155)
(0.00589176 -0.00347769 0.00696752)
(0.00598581 -0.00315888 0.00718743)
(0.00608791 -0.00281276 0.00735659)
(0.0061959 -0.0024467 0.00747142)
(0.00630747 -0.00206851 0.00752945)
(0.00642024 -0.00168624 0.00752945)
(0.00653181 -0.00130805 0.00747142)
(0.0066398 -0.000941986 0.00735659)
(0.00674191 -0.000595863 0.00718743)
(0.00683596 -0.000277053 0.00696752)
(0.00691995 7.64928e-06 0.00670155)
(0.00699209 0.000252175 0.00639521)
(0.00705083 0.000451314 0.006055)
(0.00709494 0.000600821 0.00568819)
(0.00712346 0.000697509 0.0053026)
(0.0071358 0.000739318 0.00490644)
(0.00713168 0.000725357 0.00450815)
(0.0071112 0.000655923 0.00411622)
(0.00707478 0.000532496 0.00373901)
(0.00702322 0.000357707 0.00338456)
(0.0069576 0.000135282 0.00306042)
(0.00687933 -0.00013004 0.0027735)
(0.00679007 -0.000432604 0.00252992)
(0.00669173 -0.00076596 0.00233486)
(0.0065864 -0.001123 0.00219248)
(-0.0253164 0.00746846 0.140307)
(-0.0254009 0.00707899 0.140307)
(-0.025176 0.00784148 0.140307)
(-0.0249828 0.00819008 0.140307)
(-0.0247409 0.00850684 0.140307)
(-0.0244555 0.008785 0.140307)
(-0.0241326 0.00901865 0.140307)
(-0.0237791 0.00920278 0.140307)
(-0.0234026 0.00933349 0.140307)
(-0.0230111 0.00940799 0.140307)
(-0.0226129 0.00942469 0.140307)
(-0.0222165 0.00938322 0.140307)
(-0.0218304 0.00928449 0.140307)
(-0.0214627 0.00913059 0.140307)
(-0.0211214 0.0089248 0.140307)
(-0.0208137 0.0086715 0.140307)
(-0.0205461 0.0083761 0.140307)
(-0.0203244 0.00804489 0.140307)
(-0.0201533 0.00768494 0.140307)
(-0.0200365 0.0073039 0.140307)
(-0.0199763 0.00690991 0.140307)
(-0.0199742 0.00651137 0.140307)
(-0.0200301 0.00611675 0.140307)
(-0.0201429 0.00573449 0.140307)
(-0.0203101 0.00537271 0.140307)
(-0.0205282 0.00503914 0.140307)
(-0.0207926 0.00474088 0.140307)
(-0.0210975 0.0044843 0.140307)
(-0.0214366 0.00427485 0.140307)
(-0.0218026 0.004117 0.140307)
(-0.0221876 0.00401413 0.140307)
(-0.0225836 0.00396841 0.140307)
(-0.0229819 0.00398082 0.140307)
(-0.0233742 0.00405111 0.140307)
(-0.0237521 0.00417777 0.140307)
(-0.0241075 0.0043581 0.140307)
(-0.0244329 0.00458825 0.140307)
(-0.0247213 0.00486333 0.140307)
(-0.0249666 0.00517747 0.140307)
(-0.0251635 0.00552398 0.140307)
(-0.0253079 0.00589547 0.140307)
(-0.0253967 0.00628401 0.140307)
(-0.0254279 0.00668134 0.140307)
(-0.0262755 0.00775142 0.140307)
(-0.026115 0.00819148 0.140307)
(-0.0263796 0.0072947 0.140307)
(-0.0264256 0.00682855 0.140307)
(-0.0264128 0.00636031 0.140307)
(-0.0263414 0.00589736 0.140307)
(-0.0262126 0.00544701 0.140307)
(-0.0260283 0.00501635 0.140307)
(-0.0257916 0.00461218 0.140307)
(-0.025506 0.00424088 0.140307)
(-0.0251761 0.0039083 0.140307)
(-0.0248072 0.00361968 0.140307)
(-0.024405 0.00337957 0.140307)
(-0.0239759 0.00319177 0.140307)
(-0.0235266 0.00305923 0.140307)
(-0.0230643 0.00298405 0.140307)
(-0.0225961 0.0029674 0.140307)
(-0.0221296 0.00300956 0.140307)
(-0.0216721 0.00310985 0.140307)
(-0.0212307 0.0032667 0.140307)
(-0.0208125 0.00347764 0.140307)
(-0.020424 0.00373933 0.140307)
(-0.0200713 0.00404764 0.140307)
(-0.0197601 0.00439773 0.140307)
(-0.0194952 0.00478406 0.140307)
(-0.0192808 0.00520054 0.140307)
(-0.0191204 0.00564061 0.140307)
(-0.0190163 0.00609732 0.140307)
(-0.0189703 0.00656347 0.140307)
(-0.0189831 0.00703171 0.140307)
(-0.0190544 0.00749466 0.140307)
(-0.0191833 0.00794502 0.140307)
(-0.0193675 0.00837567 0.140307)
(-0.0196043 0.00877984 0.140307)
(-0.0198899 0.00915114 0.140307)
(-0.0202197 0.00948373 0.140307)
(-0.0205886 0.00977235 0.140307)
(-0.0209908 0.0100124 0.140307)
(-0.02142 0.0102002 0.140307)
(-0.0218692 0.0103328 0.140307)
(-0.0223316 0.010408 0.140307)
(-0.0227997 0.0104246 0.140307)
(-0.0232662 0.0103825 0.140307)
(-0.0237238 0.0102822 0.140307)
(-0.0241651 0.0101253 0.140307)
(-0.0245834 0.00991438 0.140307)
(-0.0249719 0.00965269 0.140307)
(-0.0253245 0.00934438 0.140307)
(-0.0256357 0.00899429 0.140307)
(-0.0259006 0.00860796 0.140307)
(0.00735261 -0.00216906 0.00856585)
(0.00748592 -0.00171717 0.00853621)
(0.0072193 -0.00262095 0.00853621)
(0.00708809 -0.00306571 0.00844775)
(0.00696106 -0.00349633 0.00830187)
(0.0068402 -0.00390603 0.00810087)
(0.00672742 -0.00428832 0.00784792)
(0.0066245 -0.0046372 0.00754701)
(0.00653306 -0.00494715 0.00720289)
(0.00645455 -0.00521329 0.00682097)
(0.00639019 -0.00543142 0.00640729)
(0.00634102 -0.0055981 0.00596836)
(0.0063078 -0.0057107 0.00551112)
(0.00629106 -0.00576745 0.00504277)
(0.00629106 -0.00576745 0.00457069)
(0.0063078 -0.0057107 0.00410234)
(0.00634102 -0.0055981 0.0036451)
(0.00639019 -0.00543142 0.00320617)
(0.00645455 -0.00521329 0.00279249)
(0.00653306 -0.00494715 0.00241058)
(0.0066245 -0.0046372 0.00206645)
(0.00672742 -0.00428832 0.00176554)
(0.0068402 -0.00390603 0.00151259)
(0.00696106 -0.00349633 0.00131159)
(0.00708809 -0.00306571 0.00116571)
(0.0072193 -0.00262095 0.00107725)
(0.00735261 -0.00216906 0.00104761)
(0.00748592 -0.00171717 0.00107725)
(0.00761713 -0.00127241 0.00116571)
(0.00774416 -0.000841785 0.00131159)
(0.00786502 -0.000432095 0.00151259)
(0.0079778 -4.97974e-05 0.00176554)
(0.00808072 0.000299078 0.00206645)
(0.00817216 0.000609029 0.00241058)
(0.00825067 0.000875168 0.00279249)
(0.00831502 0.0010933 0.00320617)
(0.00836419 0.00125998 0.0036451)
(0.00839741 0.00137258 0.00410234)
(0.00841415 0.00142933 0.00457069)
(0.00841415 0.00142933 0.00504277)
(0.00839741 0.00137258 0.00551112)
(0.00836419 0.00125998 0.00596836)
(0.00831502 0.0010933 0.00640729)
(0.00825067 0.000875168 0.00682097)
(0.00817216 0.000609029 0.00720289)
(0.00808072 0.000299078 0.00754701)
(0.0079778 -4.97974e-05 0.00784792)
(0.00786502 -0.000432095 0.00810087)
(0.00774416 -0.000841785 0.00830187)
(0.00761713 -0.00127241 0.00844775)
)

// edges

342
(
(50 51)
(52 50)
(53 52)
(54 53)
(55 54)
(56 55)
(57 56)
(58 57)
(59 58)
(60 59)
(61 60)
(62 61)
(63 62)
(64 63)
(65 64)
(66 65)
(67 66)
(68 67)
(69 68)
(70 69)
(71 70)
(72 71)
(73 72)
(74 73)
(75 74)
(76 75)
(77 76)
(78 77)
(79 78)
(80 79)
(81 80)
(82 81)
(83 82)
(84 83)
(85 84)
(86 85)
(87 86)
(88 87)
(89 88)
(90 89)
(91 90)
(92 91)
(93 92)
(94 93)
(95 94)
(96 95)
(97 96)
(98 97)
(99 98)
(51 99)
(100 101)
(101 102)
(103 100)
(104 103)
(105 104)
(106 105)
(107 106)
(108 107)
(109 108)
(110 109)
(111 110)
(112 111)
(113 112)
(114 113)
(115 114)
(116 115)
(117 116)
(118 117)
(119 118)
(120 119)
(121 120)
(122 121)
(123 122)
(124 123)
(125 124)
(126 125)
(127 126)
(128 127)
(129 128)
(130 129)
(131 130)
(132 131)
(133 132)
(134 133)
(135 134)
(136 135)
(137 136)
(138 137)
(139 138)
(140 139)
(141 140)
(142 141)
(143 142)
(144 143)
(145 144)
(146 145)
(147 146)
(148 147)
(149 148)
(150 149)
(151 150)
(152 151)
(153 152)
(154 153)
(155 154)
(102 155)
(156 157)
(158 156)
(159 158)
(160 159)
(161 160)
(162 161)
(163 162)
(164 163)
(165 164)
(166 165)
(167 166)
(168 167)
(169 168)
(170 169)
(171 170)
(172 171)
(173 172)
(174 173)
(175 174)
(176 175)
(177 176)
(178 177)
(179 178)
(180 179)
(181 180)
(182 181)
(183 182)
(184 183)
(185 184)
(186 185)
(187 186)
(188 187)
(189 188)
(190 189)
(191 190)
(192 191)
(193 192)
(194 193)
(195 194)
(196 195)
(197 196)
(198 197)
(157 198)
(199 200)
(201 199)
(202 201)
(203 202)
(204 203)
(205 204)
(206 205)
(207 206)
(208 207)
(209 208)
(210 209)
(211 210)
(212 211)
(213 212)
(214 213)
(215 214)
(216 215)
(217 216)
(218 217)
(219 218)
(220 219)
(221 220)
(222 221)
(223 222)
(224 223)
(225 224)
(226 225)
(227 226)
(228 227)
(229 228)
(230 229)
(231 230)
(232 231)
(233 232)
(234 233)
(235 234)
(236 235)
(237 236)
(238 237)
(239 238)
(240 239)
(241 240)
(200 241)
(242 243)
(244 242)
(245 244)
(246 245)
(247 246)
(248 247)
(249 248)
(250 249)
(251 250)
(252 251)
(253 252)
(254 253)
(255 254)
(256 255)
(257 256)
(258 257)
(259 258)
(260 259)
(261 260)
(262 261)
(263 262)
(264 263)
(265 264)
(266 265)
(267 266)
(268 267)
(269 268)
(270 269)
(271 270)
(272 271)
(273 272)
(274 273)
(275 274)
(276 275)
(277 276)
(278 277)
(279 278)
(280 279)
(281 280)
(282 281)
(283 282)
(284 283)
(285 284)
(286 285)
(287 286)
(288 287)
(289 288)
(290 289)
(291 290)
(243 291)
(292 293)
(294 292)
(295 294)
(296 295)
(297 296)
(298 297)
(299 298)
(300 299)
(301 300)
(302 301)
(303 302)
(304 303)
(305 304)
(306 305)
(307 306)
(308 307)
(309 308)
(310 309)
(311 310)
(312 311)
(313 312)
(314 313)
(315 314)
(316 315)
(317 316)
(318 317)
(319 318)
(320 319)
(321 320)
(322 321)
(323 322)
(324 323)
(325 324)
(326 325)
(327 326)
(328 327)
(329 328)
(330 329)
(331 330)
(332 331)
(333 332)
(334 333)
(335 334)
(336 335)
(337 336)
(338 337)
(339 338)
(340 339)
(341 340)
(293 341)
(0 1)
(1 2)
(2 3)
(3 4)
(4 5)
(5 6)
(6 7)
(7 8)
(8 9)
(9 10)
(10 11)
(11 12)
(12 13)
(13 14)
(14 15)
(15 16)
(16 17)
(17 18)
(18 19)
(19 20)
(20 21)
(21 22)
(22 23)
(23 24)
(24 25)
(25 26)
(26 27)
(27 28)
(28 29)
(29 30)
(30 31)
(31 32)
(32 33)
(33 34)
(34 35)
(35 36)
(36 37)
(37 38)
(38 39)
(39 40)
(40 41)
(41 42)
(42 43)
(43 44)
(44 45)
(45 46)
(46 47)
(47 48)
(48 49)
(49 0)
)

// concaveStart mixedStart nonFeatureStart
0 0 0
// internalStart flatStart openStart multipleStart
242 292 292 292
// normals

784
(
(0.0177665 0.0602243 -0.998027)
(0.959134 -0.282952 -4.45092e-08)
(-0.0177665 -0.0602243 0.998027)
(-0.959134 0.282952 8.72446e-07)
(-0.0177665 -0.0602244 -0.998027)
(0.959135 -0.28295 -4.51693e-07)
(0.0177665 0.0602244 0.998027)
(-0.959135 0.28295 -7.5338e-07)
(-0.0530196 -0.179724 -0.982287)
(0.959135 -0.28295 -2.50507e-07)
(0.0530195 0.179724 0.982287)
(-0.959135 0.28295 -1.01915e-07)
(-0.0874363 -0.296389 -0.951056)
(0.959135 -0.282948 -1.76397e-07)
(0.0874365 0.296389 0.951056)
(-0.959135 0.282948 9.47154e-07)
(-0.120474 -0.40838 -0.904827)
(0.959134 -0.282951 6.67663e-07)
(0.120474 0.40838 0.904827)
(-0.959134 0.282951 -2.71451e-07)
(-0.151612 -0.51393 -0.844328)
(0.959135 -0.28295 4.39217e-07)
(0.151612 0.51393 0.844328)
(-0.959134 0.282951 1.43503e-07)
(-0.180359 -0.611375 -0.770513)
(0.959135 -0.28295 2.48524e-07)
(0.180359 0.611375 0.770513)
(-0.959135 0.28295 -1.35673e-07)
(-0.206262 -0.69918 -0.684547)
(0.959135 -0.282951 -4.55724e-07)
(0.206262 0.69918 0.684547)
(-0.959135 0.28295 -1.21395e-08)
(-0.228911 -0.775956 -0.587786)
(0.959135 -0.28295 -2.09587e-07)
(0.228911 0.775956 0.587786)
(-0.959135 0.28295 -1.40995e-07)
(-0.247951 -0.840496 -0.481753)
(0.959135 -0.28295 6.36185e-08)
(0.247951 0.840496 0.481753)
(-0.959135 0.28295 -7.49324e-08)
(-0.26308 -0.891781 -0.368125)
(0.959134 -0.282951 5.03955e-07)
(0.26308 0.891781 0.368125)
(-0.959135 0.28295 -1.09198e-06)
(-0.274061 -0.929001 -0.248691)
(0.959135 -0.28295 -7.15921e-07)
(0.27406 0.929001 0.248691)
(-0.959135 0.28295 7.34073e-07)
(-0.280719 -0.951572 -0.125333)
(0.959135 -0.28295 -8.20144e-07)
(0.280719 0.951572 0.125333)
(-0.959135 0.28295 8.4706e-07)
(-0.28295 -0.959135 0)
(0.959135 -0.28295 0)
(0.28295 0.959135 -0)
(-0.959135 0.28295 0)
(-0.280719 -0.951572 0.125333)
(0.959135 -0.28295 8.09062e-07)
(0.280719 0.951572 -0.125333)
(-0.959135 0.28295 -8.4706e-07)
(-0.27406 -0.929001 0.248691)
(0.959135 -0.28295 6.96205e-07)
(0.274061 0.929001 -0.248691)
(-0.959135 0.28295 -7.34073e-07)
(-0.263081 -0.891781 0.368124)
(0.959135 -0.28295 -7.15915e-07)
(0.26308 0.891781 -0.368124)
(-0.959135 0.28295 1.09198e-06)
(-0.247951 -0.840496 0.481754)
(0.959135 -0.28295 2.23068e-07)
(0.247951 0.840496 -0.481754)
(-0.959135 0.28295 7.49326e-08)
(-0.228912 -0.775957 0.587785)
(0.959135 -0.28295 -1.96423e-07)
(0.228911 0.775957 -0.587785)
(-0.959135 0.28295 1.40995e-07)
(-0.206262 -0.699179 0.684548)
(0.959135 -0.28295 -3.08995e-07)
(0.206261 0.699179 -0.684548)
(-0.959135 0.28295 1.21396e-08)
(-0.180359 -0.611376 0.770513)
(0.959135 -0.28295 1.72769e-07)
(0.180359 0.611376 -0.770513)
(-0.959135 0.28295 1.35673e-07)
(-0.151612 -0.513929 0.844329)
(0.959135 -0.28295 6.29754e-09)
(0.151612 0.513929 -0.844329)
(-0.959134 0.282951 -1.43503e-07)
(-0.120474 -0.408381 0.904827)
(0.959135 -0.28295 -1.06253e-06)
(0.120475 0.408381 -0.904827)
(-0.959134 0.282951 2.71451e-07)
(-0.0874365 -0.296389 0.951056)
(0.959135 -0.282948 1.02413e-08)
(0.0874364 0.296389 -0.951056)
(-0.959135 0.282948 -9.47154e-07)
(-0.0530193 -0.179723 0.982287)
(0.959135 -0.28295 -7.09126e-08)
(0.0530192 0.179723 -0.982287)
(-0.959135 0.28295 1.01915e-07)
(-0.0177665 -0.0602242 0.998027)
(0.959135 -0.28295 0)
(0.0177665 0.0602242 -0.998027)
(-0.959135 0.28295 7.53379e-07)
(0.0177664 0.0602241 0.998027)
(0.959134 -0.282952 0)
(-0.0177664 -0.0602241 -0.998027)
(-0.959134 0.282952 -8.72445e-07)
(0.0530192 0.179723 0.982287)
(0.959135 -0.28295 -3.37457e-07)
(-0.0530192 -0.179723 -0.982287)
(-0.959135 0.28295 -5.29342e-07)
(0.0874366 0.296389 0.951056)
(0.959135 -0.282948 -6.75207e-07)
(-0.0874365 -0.296389 -0.951056)
(-0.959135 0.282948 9.41175e-07)
(0.120474 0.40838 0.904827)
(0.959135 -0.28295 1.05425e-06)
(-0.120474 -0.40838 -0.904827)
(-0.959135 0.282951 -1.84528e-07)
(0.151612 0.51393 0.844328)
(0.959135 -0.28295 1.80343e-08)
(-0.151612 -0.51393 -0.844328)
(-0.959135 0.28295 2.85302e-07)
(0.180359 0.611376 0.770513)
(0.959135 -0.282951 2.63582e-07)
(-0.180359 -0.611376 -0.770513)
(-0.959135 0.282951 -2.40899e-07)
(0.206262 0.699179 0.684547)
(0.959135 -0.28295 3.88258e-07)
(-0.206262 -0.699179 -0.684547)
(-0.959135 0.28295 -7.14193e-08)
(0.228912 0.775957 0.587784)
(0.959135 -0.28295 2.32954e-07)
(-0.228911 -0.775957 -0.587784)
(-0.959135 0.282949 -4.8513e-07)
(0.247951 0.840496 0.481754)
(0.959135 -0.28295 -3.62699e-07)
(-0.247951 -0.840496 -0.481754)
(-0.959135 0.28295 6.47884e-08)
(0.263079 0.891781 0.368126)
(0.959135 -0.28295 -5.88001e-07)
(-0.26308 -0.89178 -0.368126)
(-0.959135 0.28295 5.53445e-07)
(0.274061 0.929002 0.248689)
(0.959135 -0.28295 9.61112e-07)
(-0.274061 -0.929002 -0.248689)
(-0.959135 0.28295 -1.00331e-06)
(0.280719 0.951572 0.125333)
(0.959135 -0.28295 -1.81381e-06)
(-0.280719 -0.951572 -0.125333)
(-0.959135 0.28295 1.88711e-06)
(0.28295 0.959135 0)
(0.959135 -0.282949 0)
(-0.28295 -0.959135 -0)
(-0.959134 0.282951 0)
(0.280719 0.951572 -0.125333)
(0.959135 -0.28295 1.84853e-06)
(-0.280719 -0.951572 0.125333)
(-0.959135 0.28295 -1.88711e-06)
(0.27406 0.929002 -0.248689)
(0.959135 -0.28295 -8.62966e-07)
(-0.274061 -0.929002 0.248689)
(-0.959135 0.28295 1.00331e-06)
(0.26308 0.89178 -0.368126)
(0.959135 -0.28295 7.49344e-07)
(-0.26308 -0.89178 0.368126)
(-0.959135 0.28295 -5.53445e-07)
(0.247951 0.840496 -0.481753)
(0.959135 -0.28295 7.04296e-08)
(-0.247951 -0.840496 0.481753)
(-0.959135 0.28295 -6.47883e-08)
(0.228911 0.775956 -0.587785)
(0.959135 -0.28295 1.70604e-07)
(-0.228911 -0.775956 0.587785)
(-0.959135 0.282949 4.8513e-07)
(0.206262 0.69918 -0.684546)
(0.959135 -0.282951 1.75179e-07)
(-0.206262 -0.69918 0.684546)
(-0.959135 0.28295 7.14192e-08)
(0.180359 0.611374 -0.770514)
(0.959135 -0.28295 -5.60777e-07)
(-0.180359 -0.611374 0.770514)
(-0.959135 0.282951 2.409e-07)
(0.151612 0.513931 -0.844328)
(0.959135 -0.28295 1.09908e-07)
(-0.151612 -0.513931 0.844328)
(-0.959135 0.28295 -2.85302e-07)
(0.120474 0.40838 -0.904827)
(0.959135 -0.28295 -2.36772e-07)
(-0.120474 -0.40838 0.904827)
(-0.959135 0.282951 1.84528e-07)
(0.0874365 0.296389 -0.951056)
(0.959135 -0.282948 2.28609e-07)
(-0.0874365 -0.296389 0.951056)
(-0.959135 0.282948 -9.41174e-07)
(0.0530195 0.179724 -0.982287)
(0.959135 -0.28295 6.59355e-07)
(-0.0530195 -0.179724 0.982287)
(-0.959135 0.28295 5.29342e-07)
(0.0177665 0.0602244 -0.998027)
(0.959135 -0.282951 1.13472e-05)
(-0.0177665 -0.0602244 -0.998027)
(0.959135 -0.28295 -1.66325e-05)
(-0.0530196 -0.179724 -0.982287)
(0.959135 -0.28295 6.1901e-07)
(-0.0874364 -0.296389 -0.951057)
(0.959136 -0.282945 1.83549e-05)
(-0.120474 -0.408381 -0.904827)
(0.959133 -0.282955 -1.54313e-05)
(-0.151612 -0.51393 -0.844328)
(0.959133 -0.282957 -8.54777e-06)
(-0.180359 -0.611375 -0.770513)
(0.959134 -0.282953 -5.53217e-06)
(-0.206262 -0.699179 -0.684547)
(0.959137 -0.282942 9.41289e-06)
(-0.228911 -0.775956 -0.587786)
(0.959131 -0.282962 -9.56976e-06)
(-0.247951 -0.840497 -0.481752)
(0.959133 -0.282955 -3.75232e-06)
(-0.26308 -0.89178 -0.368127)
(0.959132 -0.282958 -3.24958e-06)
(-0.27406 -0.929002 -0.24869)
(0.959142 -0.282923 7.99384e-06)
(-0.280719 -0.951572 -0.125333)
(0.959137 -0.282942 2.18464e-06)
(-0.28295 -0.959135 -0)
(0.959137 -0.282941 0)
(-0.280719 -0.951572 0.125333)
(0.959137 -0.282942 -2.18464e-06)
(-0.274061 -0.929002 0.24869)
(0.959142 -0.282923 -7.99384e-06)
(-0.263079 -0.89178 0.368126)
(0.959132 -0.282958 3.24958e-06)
(-0.247951 -0.840496 0.481753)
(0.959133 -0.282955 3.75233e-06)
(-0.228911 -0.775957 0.587785)
(0.959131 -0.282962 9.56952e-06)
(-0.206262 -0.699178 0.684548)
(0.959137 -0.282942 -9.41311e-06)
(-0.18036 -0.611376 0.770512)
(0.959134 -0.282953 5.53203e-06)
(-0.151612 -0.513929 0.844329)
(0.959133 -0.282957 8.54792e-06)
(-0.120475 -0.408381 0.904826)
(0.959133 -0.282955 1.54313e-05)
(-0.0874362 -0.296389 0.951057)
(0.959136 -0.282945 -1.83545e-05)
(-0.0530193 -0.179723 0.982287)
(0.959135 -0.28295 -6.19007e-07)
(-0.0177665 -0.0602242 0.998027)
(0.959135 -0.28295 1.66322e-05)
(0.0177665 0.0602242 0.998027)
(0.959135 -0.282951 -1.1347e-05)
(0.0530192 0.179723 0.982287)
(0.959133 -0.282954 -2.33818e-05)
(0.0874364 0.296389 0.951056)
(0.959136 -0.282944 2.16918e-05)
(0.120475 0.408381 0.904826)
(0.959139 -0.282936 3.34122e-05)
(0.151612 0.513929 0.844329)
(0.959137 -0.282941 1.26467e-05)
(0.180359 0.611376 0.770513)
(0.959134 -0.282953 -7.29137e-06)
(0.206262 0.699179 0.684547)
(0.959128 -0.282973 -2.23298e-05)
(0.228911 0.775957 0.587785)
(0.959138 -0.282937 1.20114e-05)
(0.247951 0.840496 0.481754)
(0.959132 -0.282957 -4.39427e-06)
(0.26308 0.891781 0.368124)
(0.959135 -0.282949 -6.41852e-07)
(0.27406 0.929001 0.248692)
(0.959125 -0.282982 -9.55619e-06)
(0.280719 0.951572 0.125333)
(0.959134 -0.282953 8.95769e-07)
(0.28295 0.959135 -0)
(0.959134 -0.282953 0)
(0.280719 0.951572 -0.125333)
(0.959134 -0.282953 -8.95769e-07)
(0.274061 0.929001 -0.248692)
(0.959125 -0.282982 9.55618e-06)
(0.26308 0.891781 -0.368124)
(0.959135 -0.282949 6.41852e-07)
(0.247951 0.840496 -0.481753)
(0.959132 -0.282957 4.39426e-06)
(0.228911 0.775956 -0.587786)
(0.959138 -0.282937 -1.20117e-05)
(0.206262 0.69918 -0.684546)
(0.959128 -0.282973 2.23293e-05)
(0.180359 0.611375 -0.770514)
(0.959134 -0.282953 7.29156e-06)
(0.151612 0.51393 -0.844328)
(0.959137 -0.282941 -1.26464e-05)
(0.120474 0.408381 -0.904827)
(0.959139 -0.282936 -3.34122e-05)
(0.0874365 0.296389 -0.951056)
(0.959136 -0.282944 -2.16922e-05)
(0.0530195 0.179724 -0.982287)
(0.959133 -0.282954 2.33819e-05)
(-0.959135 0.28295 0)
(-0.0158654 -0.05378 0.998427)
(-0.959135 0.282948 0)
(0.0158654 0.05378 0.998427)
(-0.959135 0.28295 7.93181e-07)
(-0.0473959 -0.160661 0.985871)
(-0.959135 0.28295 5.93891e-07)
(-0.0783301 -0.265521 0.960918)
(-0.959135 0.282949 -7.24569e-07)
(-0.10828 -0.367045 0.923879)
(-0.959135 0.28295 1.51199e-07)
(-0.136868 -0.463951 0.875224)
(-0.959135 0.28295 -2.22002e-07)
(-0.163736 -0.555025 0.81556)
(-0.959135 0.28295 1.48395e-07)
(-0.188542 -0.639115 0.745643)
(-0.959135 0.282949 -7.95861e-07)
(-0.21098 -0.715172 0.666346)
(-0.959135 0.28295 5.60313e-07)
(-0.230763 -0.782233 0.578671)
(-0.959135 0.28295 1.07011e-06)
(-0.247644 -0.839457 0.48372)
(-0.959135 0.28295 -4.99718e-07)
(-0.261412 -0.886125 0.382683)
(-0.959135 0.28295 8.58024e-08)
(-0.271891 -0.921649 0.276836)
(-0.959135 0.28295 7.32361e-07)
(-0.278952 -0.945583 0.167505)
(-0.959134 0.282951 -4.24298e-09)
(-0.282505 -0.957626 0.0560705)
(-0.959134 0.282951 4.24298e-09)
(-0.282505 -0.957626 -0.0560705)
(-0.959135 0.28295 -7.3236e-07)
(-0.278952 -0.945583 -0.167505)
(-0.959135 0.28295 -8.58024e-08)
(-0.271892 -0.921649 -0.276836)
(-0.959135 0.28295 4.99719e-07)
(-0.261411 -0.886125 -0.382684)
(-0.959135 0.28295 -1.07011e-06)
(-0.247644 -0.839457 -0.483719)
(-0.959135 0.28295 -5.60314e-07)
(-0.230763 -0.782232 -0.578672)
(-0.959135 0.282949 7.9586e-07)
(-0.21098 -0.715172 -0.666345)
(-0.959135 0.28295 -1.48395e-07)
(-0.188543 -0.639115 -0.745643)
(-0.959135 0.28295 2.22002e-07)
(-0.163735 -0.555024 -0.81556)
(-0.959135 0.28295 -1.51199e-07)
(-0.136868 -0.463952 -0.875223)
(-0.959135 0.282949 7.2457e-07)
(-0.10828 -0.367045 -0.92388)
(-0.959135 0.28295 -5.9389e-07)
(-0.0783306 -0.265523 -0.960917)
(-0.959135 0.28295 -7.93181e-07)
(-0.0473958 -0.160661 -0.985871)
(-0.959135 0.28295 0)
(-0.0158651 -0.0537791 -0.998427)
(-0.959135 0.282948 0)
(0.0158651 0.0537792 -0.998427)
(-0.959134 0.282951 8.49371e-07)
(0.0473958 0.160661 -0.985871)
(-0.959135 0.28295 4.2531e-08)
(0.0783306 0.265522 -0.960917)
(-0.959135 0.28295 -6.50798e-07)
(0.10828 0.367045 -0.923879)
(-0.959134 0.282951 3.3797e-07)
(0.136868 0.463951 -0.875224)
(-0.959135 0.282949 -6.36376e-07)
(0.163735 0.555024 -0.815561)
(-0.959135 0.28295 3.13476e-07)
(0.188543 0.639116 -0.745643)
(-0.959135 0.282949 -3.20179e-07)
(0.21098 0.715172 -0.666346)
(-0.959134 0.282951 7.66225e-07)
(0.230763 0.782232 -0.578672)
(-0.959135 0.28295 -7.7584e-07)
(0.247644 0.839457 -0.483719)
(-0.959135 0.28295 -4.87789e-07)
(0.261412 0.886125 -0.382684)
(-0.959135 0.28295 1.50161e-06)
(0.271891 0.921649 -0.276835)
(-0.959135 0.28295 -5.31423e-07)
(0.278952 0.945583 -0.167506)
(-0.959135 0.28295 -1.04821e-07)
(0.282505 0.957626 -0.056071)
(-0.959135 0.28295 1.04821e-07)
(0.282505 0.957626 0.056071)
(-0.959135 0.28295 5.31423e-07)
(0.278952 0.945583 0.167506)
(-0.959135 0.28295 -1.50161e-06)
(0.271892 0.921649 0.276835)
(-0.959135 0.28295 4.87788e-07)
(0.261412 0.886125 0.382683)
(-0.959135 0.28295 7.75841e-07)
(0.247644 0.839457 0.48372)
(-0.959134 0.282951 -7.66225e-07)
(0.230763 0.782233 0.578672)
(-0.959135 0.282949 3.20179e-07)
(0.21098 0.715172 0.666346)
(-0.959135 0.28295 -3.13477e-07)
(0.188542 0.639115 0.745643)
(-0.959135 0.282949 6.36375e-07)
(0.163735 0.555025 0.81556)
(-0.959134 0.282951 -3.3797e-07)
(0.136868 0.463951 0.875224)
(-0.959135 0.28295 6.50798e-07)
(0.10828 0.367045 0.923879)
(-0.959135 0.28295 -4.25311e-08)
(0.07833 0.265521 0.960918)
(-0.959134 0.282951 -8.49372e-07)
(0.0473959 0.160661 0.985871)
(-0.0206535 -0.0700107 0.997332)
(0.959135 -0.28295 -6.45133e-08)
(0.0206535 0.0700107 0.997332)
(0.959134 -0.282951 -2.68921e-07)
(0.061522 0.208545 0.976076)
(0.959135 -0.28295 -4.31017e-07)
(0.101079 0.342633 0.934016)
(0.959134 -0.282951 1.25966e-06)
(0.138481 0.469419 0.872049)
(0.959135 -0.282948 -4.11294e-07)
(0.172931 0.586197 0.791497)
(0.959135 -0.28295 -6.45747e-08)
(0.203696 0.690483 0.694075)
(0.959134 -0.282951 9.84832e-07)
(0.230121 0.780056 0.581857)
(0.959135 -0.282949 -1.85965e-06)
(0.251639 0.852999 0.457243)
(0.959135 -0.282951 8.6328e-07)
(0.267795 0.907763 0.322882)
(0.959135 -0.28295 5.84984e-07)
(0.278243 0.94318 0.181637)
(0.959135 -0.28295 -7.68159e-07)
(0.282761 0.958495 0.0365216)
(0.959135 -0.282949 5.16414e-07)
(0.281253 0.953381 -0.109371)
(0.959135 -0.282949 -3.37973e-07)
(0.27375 0.927947 -0.252933)
(0.959134 -0.282951 -1.26086e-06)
(0.260412 0.882736 -0.391105)
(0.959135 -0.282949 1.68855e-06)
(0.241524 0.818711 -0.52094)
(0.959134 -0.282951 -8.98681e-07)
(0.217488 0.737234 -0.639675)
(0.959134 -0.282951 -8.59558e-08)
(0.188818 0.64005 -0.744771)
(0.959135 -0.282949 1.09733e-06)
(0.156123 0.52922 -0.833997)