/*--------------------------------*- C++ -*----------------------------------*\
  =========                 |
  \\      /  F ield         | OpenFOAM: The Open Source CFD Toolbox
   \\    /   O peration     | Website:  https://openfoam.org
    \\  /    A nd           | Version:  8
     \\/     M anipulation  |
\*---------------------------------------------------------------------------*/
FoamFile
{
    version     2.0;
    format      ascii;
    class       extendedFeatureEdgeMesh;
    location    "constant/extendedFeatureEdgeMesh";
    object      STIRRER.extendedFeatureEdgeMesh;
}
// * * * * * * * * * * * * * * * * * * * * * * * * * * * * * * * * * * * * * //

// points

36
(
(11.1817 32.6187 -1.95399e-13)
(11.1817 32.6187 27.4)
(6.3486 33.8997 27.4)
(6.3486 33.8997 -1.95399e-13)
(-22.7719 26.0119 -1.95399e-13)
(-22.7719 26.0119 27.4)
(-26.2978 22.4668 27.4)
(-26.2978 22.4668 -1.95399e-13)
(-34.0271 -6.6962 -1.63425e-13)
(-34.0271 -6.6962 27.4)
(-32.7199 -11.5223 27.4)
(-32.7199 -11.5223 -1.56319e-13)
(-11.3286 -32.7975 -1.24345e-13)
(-11.3286 -32.7975 27.4)
(-6.4955 -34.0785 27.4)
(-6.4955 -34.0785 -1.24345e-13)
(22.625 -26.1908 -1.24345e-13)
(22.625 -26.1908 27.4)
(26.1509 -22.6456 27.4)
(26.1509 -22.6456 -1.24345e-13)
(33.8802 6.51737 27.4)
(32.573 11.3435 27.4)
(33.8802 6.51737 -1.56319e-13)
(32.573 11.3435 -1.63425e-13)
(3.45246 3.45572 -1.63425e-13)
(3.45246 3.45572 27.4)
(-1.38067 4.73668 27.4)
(-1.38067 4.73668 -1.63425e-13)
(-4.90658 1.19154 27.4)
(-4.90658 1.19154 -1.63425e-13)
(-3.59935 -3.63455 27.4)
(-3.59935 -3.63455 -1.56319e-13)
(1.23378 -4.91551 27.4)
(1.23378 -4.91551 -1.56319e-13)
(4.75968 -1.37037 27.4)
(4.75968 -1.37037 -1.56319e-13)
)

// edges

54
(
(24 0)
(0 1)
(1 25)
(26 2)
(2 3)
(3 27)
(2 1)
(0 3)
(27 4)
(4 5)
(5 26)
(28 6)
(6 7)
(7 29)
(6 5)
(4 7)
(29 8)
(8 9)
(9 28)
(30 10)
(10 11)
(11 31)
(10 9)
(8 11)
(31 12)
(12 13)
(13 30)
(32 14)
(14 15)
(15 33)
(14 13)
(12 15)
(33 16)
(16 17)
(17 32)
(34 18)
(18 19)
(19 35)
(18 17)
(16 19)
(34 20)
(21 25)
(20 21)
(35 22)
(22 20)
(21 23)
(23 24)
(22 23)
(25 24)
(27 26)
(29 28)
(31 30)
(33 32)
(35 34)
)

// concaveStart mixedStart nonFeatureStart
24 24 36
// internalStart flatStart openStart multipleStart
48 54 54 54
// normals

60
(
(0.966626 -0.256192 0)
(-2.71516e-16 -1.02445e-15 -1)
(0.966626 -0.256192 0)
(0.256192 0.966626 0)
(0 0 1)
(-0.966626 0.256192 0)
(0 0 1)
(-0.966626 0.256192 0)
(0.256192 0.966626 0)
(-2.71517e-16 -1.02445e-15 -1)
(0.705182 0.709027 -0)
(7.51439e-16 -7.47361e-16 -1)
(0.705182 0.709027 0)
(-0.709028 0.70518 0)
(0 0 1)
(-0.705182 -0.709027 -0)
(0 0 1)
(-0.705182 -0.709027 0)
(-0.709028 0.70518 0)
(7.51438e-16 -7.47363e-16 -1)
(-0.261444 0.965219 0)
(3.71534e-16 -1.37165e-15 -1)
(-0.261444 0.965219 0)
(-0.965218 -0.261446 -0)
(0 0 1)
(0.261444 -0.965219 0)
(0 0 1)
(0.261444 -0.965219 0)
(-0.965218 -0.261446 -0)
(3.71533e-16 -1.37165e-15 -1)
(-0.966626 0.256192 0)
(-2.71515e-16 -1.02444e-15 -1)
(-0.966626 0.256192 0)
(-0.256192 -0.966626 -0)
(0 0 1)
(0.966626 -0.256192 0)
(0 0 1)
(0.966626 -0.256192 0)
(-0.256192 -0.966626 -0)
(-2.71515e-16 -1.02444e-15 -1)
(-0.705182 -0.709027 0)
(7.51435e-16 -7.4736e-16 -1)
(-0.705182 -0.709027 0)
(0.709027 -0.705181 0)
(0 -0 1)
(0.705182 0.709027 0)
(-0 0 1)
(0.705182 0.709027 0)
(0.709027 -0.705181 0)
(7.51435e-16 -7.4736e-16 -1)
(0 -0 1)
(0.261444 -0.965219 0)
(0 0 1)
(-0.261444 0.965219 0)
(0.965219 0.261444 0)
(0.261444 -0.965219 0)
(3.71534e-16 -1.37165e-15 -1)
(-0.261444 0.965219 0)
(0.965219 0.261444 0)
(3.71533e-16 -1.37165e-15 -1)
)

// normal volume types

60
(
0
0
0
0
0
0
0
0
0
0
0
0
0
0
0
0
0
0
0
0
0
0
0
0
0
0
0
0
0
0
0
0
0
0
0
0
0
0
0
0
0
0
0
0
0
0
0
0
0
0
0
0
0
0
0
0
0
0
0
0
)

// normalDirections

54
(
2(1 -1)
2(1 -1)
2(1 -1)
2(1 -1)
2(1 -1)
2(1 -1)
2(1 -1)
2(1 -1)
2(1 -1)
2(1 -1)
2(1 -1)
2(1 -1)
2(1 -1)
2(1 -1)
2(1 -1)
2(1 -1)
2(1 -1)
2(1 -1)
2(1 -1)
2(1 -1)
2(1 -1)
2(1 -1)
2(1 -1)
2(1 -1)
2(1 -1)
2(1 -1)
2(1 -1)
2(1 -1)
2(1 -1)
2(1 -1)
2(1 -1)
2(1 -1)
2(1 -1)
2(1 -1)
2(1 -1)
2(1 -1)
2(1 -1)
2(1 -1)
2(1 -1)
2(1 -1)
2(1 -1)
2(1 -1)
2(1 -1)
2(1 -1)
2(1 -1)
2(1 -1)
2(1 -1)
2(1 -1)
2(1 -1)
2(1 -1)
2(1 -1)
2(1 -1)
2(1 -1)
2(1 -1)
)

// edgeNormals

54
(
2(0 1)
2(2 3)
2(2 4)
2(5 6)
2(7 8)
2(7 9)
2(3 6)
2(8 9)
2(10 11)
2(12 13)
2(12 14)
2(15 16)
2(17 18)
2(17 19)
2(13 14)
2(18 11)
2(20 21)
2(22 23)
2(22 24)
2(25 26)
2(27 28)
2(27 29)
2(23 26)
2(28 21)
2(30 31)
2(32 33)
2(32 34)
2(35 36)
2(37 38)
2(37 39)
2(33 36)
2(38 39)
2(40 41)
2(42 43)
2(42 44)
2(45 46)
2(47 48)
2(47 49)
2(43 44)
2(48 41)
2(50 51)
2(52 53)
2(52 54)
2(55 56)
2(51 54)
2(57 58)
2(57 59)
2(58 56)
2(0 53)
2(5 10)
2(15 20)
2(25 30)
2(35 40)
2(45 55)
)

// featurePointNormals

36
(
3(0 1 3)
3(2 3 4)
3(5 6 8)
3(7 8 9)
3(10 11 13)
3(12 13 14)
3(15 16 18)
3(17 18 19)
3(20 21 23)
3(22 23 24)
3(25 26 28)
3(27 28 29)
3(30 31 33)
3(32 33 34)
3(35 36 38)
3(37 38 39)
3(40 41 43)
3(42 43 44)
3(45 46 48)
3(47 48 49)
3(50 51 54)
3(52 53 54)
3(55 56 54)
3(57 58 59)
3(0 1 57)
3(2 4 53)
3(5 6 12)
3(7 9 10)
3(15 16 22)
3(17 19 20)
3(25 26 32)
3(27 29 30)
3(35 36 42)
3(37 39 40)
3(45 46 51)
3(47 49 55)
)

// featurePointEdges

36
(
3(1 7 0)
3(1 6 2)
3(4 6 3)
3(4 7 5)
3(9 15 8)
3(9 14 10)
3(12 14 11)
3(12 15 13)
3(17 23 16)
3(17 22 18)
3(20 22 19)
3(20 23 21)
3(25 31 24)
3(25 30 26)
3(28 30 27)
3(28 31 29)
3(33 39 32)
3(33 38 34)
3(36 38 35)
3(36 39 37)
3(42 44 40)
3(41 45 42)
3(44 47 43)
3(45 47 46)
3(48 46 0)
3(2 41 48)
3(49 10 3)
3(5 8 49)
3(50 18 11)
3(13 16 50)
3(51 26 19)
3(21 24 51)
3(52 34 27)
3(29 32 52)
3(35 40 53)
3(37 43 53)
)

// regionEdges
0()


// ************************************************************************* //
