/*--------------------------------*- C++ -*----------------------------------*\
  =========                 |
  \\      /  F ield         | OpenFOAM: The Open Source CFD Toolbox
   \\    /   O peration     | Website:  https://openfoam.org
    \\  /    A nd           | Version:  8
     \\/     M anipulation  |
\*---------------------------------------------------------------------------*/
FoamFile
{
    version     2.0;
    format      ascii;
    class       extendedFeatureEdgeMesh;
    location    "constant/extendedFeatureEdgeMesh";
    object      WALL.extendedFeatureEdgeMesh;
}
// * * * * * * * * * * * * * * * * * * * * * * * * * * * * * * * * * * * * * //

// points

356
(
(81.5993 63.7507 -1.13687e-13)
(85.9393 57.7671 -1.13687e-13)
(76.8435 69.4095 -1.13687e-13)
(71.6961 74.7146 -1.13687e-13)
(66.1833 79.639 -1.13687e-13)
(60.3333 84.1576 -1.13687e-13)
(54.1758 88.2473 -1.13687e-13)
(47.7423 91.8873 -1.13687e-13)
(41.0655 95.0591 -1.13687e-13)
(34.1795 97.7464 -1.13687e-13)
(27.1192 99.9357 -1.13687e-13)
(19.9208 101.616 -1.13687e-13)
(12.6208 102.778 -1.13687e-13)
(5.25659 103.416 -1.13687e-13)
(-2.13445 103.528 -1.13687e-13)
(-9.51462 103.112 -1.13687e-13)
(-16.8463 102.171 -1.13687e-13)
(-24.0921 100.708 -1.13687e-13)
(-31.2152 98.733 -1.13687e-13)
(-38.1792 96.2546 -1.13687e-13)
(-44.9487 93.2857 -1.13687e-13)
(-51.4891 89.8414 -1.13687e-13)
(-57.7671 85.9393 -1.13687e-13)
(-63.7507 81.5993 -1.13687e-13)
(-69.4095 76.8435 -1.13687e-13)
(-74.7146 71.6961 -1.13687e-13)
(-79.639 66.1833 -1.13687e-13)
(-84.1576 60.3333 -1.13687e-13)
(-88.2473 54.1758 -1.13687e-13)
(-91.8873 47.7423 -1.7053e-13)
(-95.0591 41.0655 -1.7053e-13)
(-97.7464 34.1795 -1.7053e-13)
(-99.9357 27.1192 -1.7053e-13)
(-101.616 19.9208 -1.7053e-13)
(-102.778 12.6208 -1.7053e-13)
(-103.416 5.25659 -1.7053e-13)
(-103.528 -2.13445 -1.7053e-13)
(-103.112 -9.51462 -1.7053e-13)
(-102.171 -16.8463 -1.7053e-13)
(-100.708 -24.0921 -1.7053e-13)
(-98.733 -31.2152 -1.7053e-13)
(-96.2546 -38.1792 -1.7053e-13)
(-93.2857 -44.9487 -1.7053e-13)
(-89.8414 -51.4891 -1.7053e-13)
(-85.9393 -57.7671 -1.7053e-13)
(-81.5993 -63.7507 -1.7053e-13)
(-76.8435 -69.4095 -1.7053e-13)
(-71.6961 -74.7146 -1.7053e-13)
(-66.1833 -79.639 -1.7053e-13)
(-60.3333 -84.1576 -1.7053e-13)
(-54.1758 -88.2473 -1.7053e-13)
(-47.7423 -91.8873 -1.7053e-13)
(-41.0655 -95.0591 -1.7053e-13)
(-34.1795 -97.7464 -1.7053e-13)
(-27.1192 -99.9357 -1.7053e-13)
(-19.9208 -101.616 -1.7053e-13)
(-12.6208 -102.778 -1.7053e-13)
(-5.25659 -103.416 -1.7053e-13)
(2.13445 -103.528 -1.7053e-13)
(9.51462 -103.112 -1.7053e-13)
(16.8463 -102.171 -1.7053e-13)
(24.0921 -100.708 -1.7053e-13)
(31.2152 -98.733 -1.13687e-13)
(38.1792 -96.2546 -1.13687e-13)
(44.9487 -93.2857 -1.13687e-13)
(51.4891 -89.8414 -1.13687e-13)
(57.7671 -85.9393 -1.13687e-13)
(63.7507 -81.5993 -1.13687e-13)
(69.4095 -76.8435 -1.13687e-13)
(74.7146 -71.6961 -1.13687e-13)
(79.639 -66.1833 -1.13687e-13)
(84.1576 -60.3333 -1.13687e-13)
(88.2473 -54.1758 -1.13687e-13)
(91.8873 -47.7423 -1.13687e-13)
(95.0591 -41.0655 -1.13687e-13)
(97.7464 -34.1795 -1.13687e-13)
(99.9357 -27.1192 -1.13687e-13)
(101.616 -19.9208 -1.13687e-13)
(102.778 -12.6208 -1.13687e-13)
(103.416 -5.25659 -1.13687e-13)
(103.528 2.13445 -1.13687e-13)
(103.112 9.51462 -1.13687e-13)
(102.171 16.8463 -1.13687e-13)
(100.708 24.0921 -1.13687e-13)
(98.733 31.2152 -1.13687e-13)
(96.2546 38.1792 -1.13687e-13)
(93.2857 44.9487 -1.13687e-13)
(89.8414 51.4891 -1.13687e-13)
(81.5993 63.7507 284.83)
(76.8435 69.4095 284.83)
(85.9393 57.7671 284.83)
(89.8414 51.4891 284.83)
(93.2857 44.9487 284.83)
(96.2546 38.1792 284.83)
(98.733 31.2152 284.83)
(100.708 24.0921 284.83)
(102.171 16.8463 284.83)
(103.112 9.51462 284.83)
(103.528 2.13445 284.83)
(103.416 -5.25659 284.83)
(102.778 -12.6208 284.83)
(101.616 -19.9208 284.83)
(99.9357 -27.1192 284.83)
(97.7464 -34.1795 284.83)
(95.0591 -41.0655 284.83)
(91.8873 -47.7423 284.83)
(88.2473 -54.1758 284.83)
(84.1576 -60.3333 284.83)
(79.639 -66.1833 284.83)
(74.7146 -71.6961 284.83)
(69.4095 -76.8435 284.83)
(63.7507 -81.5993 284.83)
(57.7671 -85.9393 284.83)
(51.4891 -89.8414 284.83)
(44.9487 -93.2857 284.83)
(38.1792 -96.2546 284.83)
(31.2152 -98.733 284.83)
(24.0921 -100.708 284.83)
(16.8463 -102.171 284.83)
(9.51462 -103.112 284.83)
(2.13445 -103.528 284.83)
(-5.25659 -103.416 284.83)
(-12.6208 -102.778 284.83)
(-19.9208 -101.616 284.83)
(-27.1192 -99.9357 284.83)
(-34.1795 -97.7464 284.83)
(-41.0655 -95.0591 284.83)
(-47.7423 -91.8873 284.83)
(-54.1758 -88.2473 284.83)
(-60.3333 -84.1576 284.83)
(-66.1833 -79.639 284.83)
(-71.6961 -74.7146 284.83)
(-76.8435 -69.4095 284.83)
(-81.5993 -63.7507 284.83)
(-85.9393 -57.7671 284.83)
(-89.8414 -51.4891 284.83)
(-93.2857 -44.9487 284.83)
(-96.2546 -38.1792 284.83)
(-98.733 -31.2152 284.83)
(-100.708 -24.0921 284.83)
(-102.171 -16.8463 284.83)
(-103.112 -9.51462 284.83)
(-103.528 -2.13445 284.83)
(-103.416 5.25659 284.83)
(-102.778 12.6208 284.83)
(-101.616 19.9208 284.83)
(-99.9357 27.1192 284.83)
(-97.7464 34.1795 284.83)
(-95.0591 41.0655 284.83)
(-91.8873 47.7423 284.83)
(-88.2473 54.1758 284.83)
(-84.1576 60.3333 284.83)
(-79.639 66.1833 284.83)
(-74.7146 71.6961 284.83)
(-69.4095 76.8435 284.83)
(-63.7507 81.5993 284.83)
(-57.7671 85.9393 284.83)
(-51.4891 89.8414 284.83)
(-44.9487 93.2857 284.83)
(-38.1792 96.2546 284.83)
(-31.2152 98.733 284.83)
(-24.0921 100.708 284.83)
(-16.8463 102.171 284.83)
(-9.51462 103.112 284.83)
(-2.13445 103.528 284.83)
(5.25659 103.416 284.83)
(12.6208 102.778 284.83)
(19.9208 101.616 284.83)
(27.1192 99.9357 284.83)
(34.1795 97.7464 284.83)
(41.0655 95.0591 284.83)
(47.7423 91.8873 284.83)
(54.1758 88.2473 284.83)
(60.3333 84.1576 284.83)
(66.1833 79.639 284.83)
(71.6961 74.7146 284.83)
(86.3274 67.4446 -1.13687e-13)
(81.4124 73.3023 -1.13687e-13)
(90.8218 61.2585 -1.13687e-13)
(94.8738 54.7738 -1.13687e-13)
(98.4635 48.0223 -1.13687e-13)
(101.574 41.0369 -1.13687e-13)
(104.189 33.8515 -1.13687e-13)
(106.296 26.5012 -1.13687e-13)
(107.886 19.0218 -1.13687e-13)
(108.95 11.4497 -1.13687e-13)
(109.483 3.82188 -1.13687e-13)
(109.483 -3.8246 -1.13687e-13)
(108.95 -11.4524 -1.13687e-13)
(107.885 -19.0245 -1.13687e-13)
(106.296 -26.5039 -1.13687e-13)
(104.188 -33.8541 -1.13687e-13)
(101.573 -41.0394 -1.13687e-13)
(98.4623 -48.0248 -1.13687e-13)
(94.8724 -54.7762 -1.13687e-13)
(90.8203 -61.2607 -1.13687e-13)
(86.3257 -67.4468 -1.13687e-13)
(81.4106 -73.3043 -1.13687e-13)
(76.0988 -78.8046 -1.13687e-13)
(70.4163 -83.921 -1.13687e-13)
(64.3908 -88.6286 -1.13687e-13)
(58.0515 -92.9044 -1.13687e-13)
(51.4294 -96.7275 -1.13687e-13)
(44.5568 -100.079 -1.13687e-13)
(37.467 -102.944 -1.13687e-13)
(30.1948 -105.307 -1.7053e-13)
(22.7754 -107.156 -1.7053e-13)
(15.2451 -108.484 -1.7053e-13)
(7.64047 -109.283 -1.7053e-13)
(-0.0013592 -109.55 -1.7053e-13)
(-7.64318 -109.283 -1.7053e-13)
(-15.2478 -108.484 -1.7053e-13)
(-22.7781 -107.156 -1.7053e-13)
(-30.1974 -105.306 -1.7053e-13)
(-37.4696 -102.943 -1.7053e-13)
(-44.5592 -100.078 -1.7053e-13)
(-51.4318 -96.7263 -1.7053e-13)
(-58.0538 -92.9029 -1.7053e-13)
(-64.393 -88.627 -1.7053e-13)
(-70.4184 -83.9193 -1.7053e-13)
(-76.1008 -78.8027 -1.7053e-13)
(-81.4124 -73.3023 -1.7053e-13)
(-86.3274 -67.4446 -1.7053e-13)
(-90.8218 -61.2585 -1.7053e-13)
(-94.8738 -54.7738 -1.7053e-13)
(-98.4635 -48.0223 -1.7053e-13)
(-101.574 -41.0369 -1.7053e-13)
(-104.189 -33.8515 -1.7053e-13)
(-106.296 -26.5012 -1.7053e-13)
(-107.886 -19.0218 -1.7053e-13)
(-108.95 -11.4497 -1.7053e-13)
(-109.483 -3.82188 -1.7053e-13)
(-109.483 3.8246 -1.7053e-13)
(-108.95 11.4524 -1.7053e-13)
(-107.885 19.0245 -1.7053e-13)
(-106.296 26.5039 -1.7053e-13)
(-104.188 33.8541 -1.7053e-13)
(-101.573 41.0394 -1.7053e-13)
(-98.4623 48.0248 -1.7053e-13)
(-94.8724 54.7762 -1.7053e-13)
(-90.8203 61.2607 -1.13687e-13)
(-86.3257 67.4468 -1.13687e-13)
(-81.4106 73.3043 -1.13687e-13)
(-76.0988 78.8046 -1.13687e-13)
(-70.4163 83.921 -1.13687e-13)
(-64.3908 88.6286 -1.13687e-13)
(-58.0515 92.9044 -1.13687e-13)
(-51.4294 96.7275 -1.13687e-13)
(-44.5568 100.079 -1.13687e-13)
(-37.467 102.944 -1.13687e-13)
(-30.1948 105.307 -1.13687e-13)
(-22.7754 107.156 -1.13687e-13)
(-15.2451 108.484 -1.13687e-13)
(-7.64047 109.283 -1.13687e-13)
(0.0013592 109.55 -1.13687e-13)
(7.64318 109.283 -1.13687e-13)
(15.2478 108.484 -1.13687e-13)
(22.7781 107.156 -1.13687e-13)
(30.1974 105.306 -1.13687e-13)
(37.4696 102.943 -1.13687e-13)
(44.5592 100.078 -1.13687e-13)
(51.4318 96.7263 -1.13687e-13)
(58.0538 92.9029 -1.13687e-13)
(64.393 88.627 -1.13687e-13)
(70.4184 83.9193 -1.13687e-13)
(76.1008 78.8027 -1.13687e-13)
(86.3274 67.4446 284.83)
(90.8218 61.2585 284.83)
(81.4124 73.3023 284.83)
(76.1008 78.8027 284.83)
(70.4184 83.9193 284.83)
(64.393 88.627 284.83)
(58.0538 92.9029 284.83)
(51.4318 96.7263 284.83)
(44.5592 100.078 284.83)
(37.4696 102.943 284.83)
(30.1974 105.306 284.83)
(22.7781 107.156 284.83)
(15.2478 108.484 284.83)
(7.64318 109.283 284.83)
(0.0013592 109.55 284.83)
(-7.64047 109.283 284.83)
(-15.2451 108.484 284.83)
(-22.7754 107.156 284.83)
(-30.1948 105.307 284.83)
(-37.467 102.944 284.83)
(-44.5568 100.079 284.83)
(-51.4294 96.7275 284.83)
(-58.0515 92.9044 284.83)
(-64.3908 88.6286 284.83)
(-70.4163 83.921 284.83)
(-76.0988 78.8046 284.83)
(-81.4106 73.3043 284.83)
(-86.3257 67.4468 284.83)
(-90.8203 61.2607 284.83)
(-94.8724 54.7762 284.83)
(-98.4623 48.0248 284.83)
(-101.573 41.0394 284.83)
(-104.188 33.8541 284.83)
(-106.296 26.5039 284.83)
(-107.885 19.0245 284.83)
(-108.95 11.4524 284.83)
(-109.483 3.8246 284.83)
(-109.483 -3.82188 284.83)
(-108.95 -11.4497 284.83)
(-107.886 -19.0218 284.83)
(-106.296 -26.5012 284.83)
(-104.189 -33.8515 284.83)
(-101.574 -41.0369 284.83)
(-98.4635 -48.0223 284.83)
(-94.8738 -54.7738 284.83)
(-90.8218 -61.2585 284.83)
(-86.3274 -67.4446 284.83)
(-81.4124 -73.3023 284.83)
(-76.1008 -78.8027 284.83)
(-70.4184 -83.9193 284.83)
(-64.393 -88.627 284.83)
(-58.0538 -92.9029 284.83)
(-51.4318 -96.7263 284.83)
(-44.5592 -100.078 284.83)
(-37.4696 -102.943 284.83)
(-30.1974 -105.306 284.83)
(-22.7781 -107.156 284.83)
(-15.2478 -108.484 284.83)
(-7.64318 -109.283 284.83)
(-0.0013592 -109.55 284.83)
(7.64047 -109.283 284.83)
(15.2451 -108.484 284.83)
(22.7754 -107.156 284.83)
(30.1948 -105.307 284.83)
(37.467 -102.944 284.83)
(44.5568 -100.079 284.83)
(51.4294 -96.7275 284.83)
(58.0515 -92.9044 284.83)
(64.3908 -88.6286 284.83)
(70.4163 -83.921 284.83)
(76.0988 -78.8046 284.83)
(81.4106 -73.3043 284.83)
(86.3257 -67.4468 284.83)
(90.8203 -61.2607 284.83)
(94.8724 -54.7762 284.83)
(98.4623 -48.0248 284.83)
(101.573 -41.0394 284.83)
(104.188 -33.8541 284.83)
(106.296 -26.5039 284.83)
(107.885 -19.0245 284.83)
(108.95 -11.4524 284.83)
(109.483 -3.8246 284.83)
(109.483 3.82188 284.83)
(108.95 11.4497 284.83)
(107.886 19.0218 284.83)
(106.296 26.5012 284.83)
(104.189 33.8515 284.83)
(101.574 41.0369 284.83)
(98.4635 48.0223 284.83)
(94.8738 54.7738 284.83)
)

// edges

356
(
(0 1)
(2 0)
(3 2)
(4 3)
(5 4)
(6 5)
(7 6)
(8 7)
(9 8)
(10 9)
(11 10)
(12 11)
(13 12)
(14 13)
(15 14)
(16 15)
(17 16)
(18 17)
(19 18)
(20 19)
(21 20)
(22 21)
(23 22)
(24 23)
(25 24)
(26 25)
(27 26)
(28 27)
(29 28)
(30 29)
(31 30)
(32 31)
(33 32)
(34 33)
(35 34)
(36 35)
(37 36)
(38 37)
(39 38)
(40 39)
(41 40)
(42 41)
(43 42)
(44 43)
(45 44)
(46 45)
(47 46)
(48 47)
(49 48)
(50 49)
(51 50)
(52 51)
(53 52)
(54 53)
(55 54)
(56 55)
(57 56)
(58 57)
(59 58)
(60 59)
(61 60)
(62 61)
(63 62)
(64 63)
(65 64)
(66 65)
(67 66)
(68 67)
(69 68)
(70 69)
(71 70)
(72 71)
(73 72)
(74 73)
(75 74)
(76 75)
(77 76)
(78 77)
(79 78)
(80 79)
(81 80)
(82 81)
(83 82)
(84 83)
(85 84)
(86 85)
(87 86)
(1 87)
(88 89)
(90 88)
(91 90)
(92 91)
(93 92)
(94 93)
(95 94)
(96 95)
(97 96)
(98 97)
(99 98)
(100 99)
(101 100)
(102 101)
(103 102)
(104 103)
(105 104)
(106 105)
(107 106)
(108 107)
(109 108)
(110 109)
(111 110)
(112 111)
(113 112)
(114 113)
(115 114)
(116 115)
(117 116)
(118 117)
(119 118)
(120 119)
(121 120)
(122 121)
(123 122)
(124 123)
(125 124)
(126 125)
(127 126)
(128 127)
(129 128)
(130 129)
(131 130)
(132 131)
(133 132)
(134 133)
(135 134)
(136 135)
(137 136)
(138 137)
(139 138)
(140 139)
(141 140)
(142 141)
(143 142)
(144 143)
(145 144)
(146 145)
(147 146)
(148 147)
(149 148)
(150 149)
(151 150)
(152 151)
(153 152)
(154 153)
(155 154)
(156 155)
(157 156)
(158 157)
(159 158)
(160 159)
(161 160)
(162 161)
(163 162)
(164 163)
(165 164)
(166 165)
(167 166)
(168 167)
(169 168)
(170 169)
(171 170)
(172 171)
(173 172)
(174 173)
(175 174)
(89 175)
(176 177)
(178 176)
(179 178)
(180 179)
(181 180)
(182 181)
(183 182)
(184 183)
(185 184)
(186 185)
(187 186)
(188 187)
(189 188)
(190 189)
(191 190)
(192 191)
(193 192)
(194 193)
(195 194)
(196 195)
(197 196)
(198 197)
(199 198)
(200 199)
(201 200)
(202 201)
(203 202)
(204 203)
(205 204)
(206 205)
(207 206)
(208 207)
(209 208)
(210 209)
(211 210)
(212 211)
(213 212)
(214 213)
(215 214)
(216 215)
(217 216)
(218 217)
(219 218)
(220 219)
(221 220)
(222 221)
(223 222)
(224 223)
(225 224)
(226 225)
(227 226)
(228 227)
(229 228)
(230 229)
(231 230)
(232 231)
(233 232)
(234 233)
(235 234)
(236 235)
(237 236)
(238 237)
(239 238)
(240 239)
(241 240)
(242 241)
(243 242)
(244 243)
(245 244)
(246 245)
(247 246)
(248 247)
(249 248)
(250 249)
(251 250)
(252 251)
(253 252)
(254 253)
(255 254)
(256 255)
(257 256)
(258 257)
(259 258)
(260 259)
(261 260)
(262 261)
(263 262)
(264 263)
(265 264)
(177 265)
(266 267)
(268 266)
(269 268)
(270 269)
(271 270)
(272 271)
(273 272)
(274 273)
(275 274)
(276 275)
(277 276)
(278 277)
(279 278)
(280 279)
(281 280)
(282 281)
(283 282)
(284 283)
(285 284)
(286 285)
(287 286)
(288 287)
(289 288)
(290 289)
(291 290)
(292 291)
(293 292)
(294 293)
(295 294)
(296 295)
(297 296)
(298 297)
(299 298)
(300 299)
(301 300)
(302 301)
(303 302)
(304 303)
(305 304)
(306 305)
(307 306)
(308 307)
(309 308)
(310 309)
(311 310)
(312 311)
(313 312)
(314 313)
(315 314)
(316 315)
(317 316)
(318 317)
(319 318)
(320 319)
(321 320)
(322 321)
(323 322)
(324 323)
(325 324)
(326 325)
(327 326)
(328 327)
(329 328)
(330 329)
(331 330)
(332 331)
(333 332)
(334 333)
(335 334)
(336 335)
(337 336)
(338 337)
(339 338)
(340 339)
(341 340)
(342 341)
(343 342)
(344 343)
(345 344)
(346 345)
(347 346)
(348 347)
(349 348)
(350 349)
(351 350)
(352 351)
(353 352)
(354 353)
(355 354)
(267 355)
)

// concaveStart mixedStart nonFeatureStart
0 0 0
// internalStart flatStart openStart multipleStart
356 356 356 356
// normals

712
(
(-0.80949 -0.587134 0)
(0 0 -1)
(-0.765543 -0.643385 0)
(0 0 -1)
(-0.717693 -0.696359 0)
(0 0 -1)
(-0.666187 -0.745785 0)
(0 0 -1)
(-0.611286 -0.79141 0)
(0 0 -1)
(-0.55327 -0.833002 0)
(0 0 -1)
(-0.492434 -0.87035 0)
(0 0 -1)
(-0.429089 -0.903262 0)
(0 0 -1)
(-0.363558 -0.931572 0)
(0 0 -1)
(-0.296175 -0.955134 0)
(0 0 -1)
(-0.227285 -0.973828 0)
(0 0 -1)
(-0.157227 -0.987563 0)
(0 0 -1)
(-0.086378 -0.996262 0)
(0 0 -1)
(-0.0150846 -0.999886 0)
(0 0 -1)
(0.056278 -0.998415 0)
(0 0 -1)
(0.127369 -0.991855 0)
(0 0 -1)
(0.197812 -0.98024 0)
(0 0 -1)
(0.26722 -0.963635 0)
(0 0 -1)
(0.335289 -0.942115 0)
(0 0 -1)
(0.401647 -0.915795 0)
(0 0 -1)
(0.465954 -0.884809 0)
(0 0 -1)
(0.527889 -0.849313 0)
(0 0 -1)
(0.587134 -0.80949 0)
(0 0 -1)
(0.643385 -0.765543 0)
(0 0 -1)
(0.696359 -0.717693 0)
(0 0 -1)
(0.745785 -0.666187 0)
(0 0 -1)
(0.79141 -0.611286 0)
(0 0 -1)
(0.833002 -0.55327 0)
(0 0 -1)
(0.87035 -0.492434 0)
(8.92313e-15 3.78691e-15 -1)
(0.903262 -0.429089 0)
(0 0 -1)
(0.931572 -0.363558 0)
(0 0 -1)
(0.955134 -0.296175 0)
(0 0 -1)
(0.973828 -0.227285 0)
(0 0 -1)
(0.987563 -0.157227 0)
(0 0 -1)
(0.996262 -0.086378 0)
(0 0 -1)
(0.999886 -0.0150846 0)
(0 0 -1)
(0.998415 0.056278 -0)
(0 0 -1)
(0.991855 0.127369 -0)
(0 0 -1)
(0.98024 0.197812 -0)
(0 0 -1)
(0.963635 0.26722 -0)
(0 0 -1)
(0.942115 0.335289 -0)
(0 0 -1)
(0.915795 0.401647 -0)
(0 0 -1)
(0.884809 0.465954 -0)
(0 0 -1)
(0.849313 0.527889 -0)
(0 0 -1)
(0.80949 0.587134 -0)
(0 0 -1)
(0.765543 0.643385 -0)
(-0 0 -1)
(0.717693 0.696359 -0)
(-0 0 -1)
(0.666187 0.745785 -0)
(-0 0 -1)
(0.611286 0.79141 -0)
(-0 0 -1)
(0.55327 0.833002 -0)
(-0 0 -1)
(0.492434 0.87035 -0)
(-0 0 -1)
(0.429089 0.903262 -0)
(-0 0 -1)
(0.363558 0.931572 -0)
(-0 0 -1)
(0.296175 0.955134 -0)
(-0 0 -1)
(0.227285 0.973828 -0)
(-0 0 -1)
(0.157227 0.987563 -0)
(-0 0 -1)
(0.086378 0.996262 -0)
(-0 0 -1)
(0.0150846 0.999886 -0)
(-0 0 -1)
(-0.056278 0.998415 0)
(0 0 -1)
(-0.127369 0.991855 0)
(0 0 -1)
(-0.197812 0.98024 0)
(0 0 -1)
(-0.26722 0.963635 0)
(5.83337e-15 7.74176e-15 -1)
(-0.335289 0.942115 0)
(0 0 -1)
(-0.401647 0.915795 0)
(0 0 -1)
(-0.465954 0.884809 0)
(0 0 -1)
(-0.527889 0.849313 0)
(0 -0 -1)
(-0.587134 0.80949 0)
(0 -0 -1)
(-0.643385 0.765543 0)
(0 -0 -1)
(-0.696359 0.717693 0)
(0 -0 -1)
(-0.745785 0.666187 0)
(0 -0 -1)
(-0.79141 0.611286 0)
(0 -0 -1)
(-0.833002 0.55327 0)
(0 -0 -1)
(-0.87035 0.492434 0)
(0 -0 -1)
(-0.903262 0.429089 0)
(0 -0 -1)
(-0.931572 0.363558 0)
(0 -0 -1)
(-0.955134 0.296175 0)
(0 -0 -1)
(-0.973828 0.227285 0)
(0 -0 -1)
(-0.987563 0.157227 0)
(0 -0 -1)
(-0.996262 0.086378 0)
(0 -0 -1)
(-0.999886 0.0150846 0)
(0 -0 -1)
(-0.998415 -0.056278 0)
(0 0 -1)
(-0.991855 -0.127369 0)
(0 0 -1)
(-0.98024 -0.197812 0)
(0 0 -1)
(-0.963635 -0.26722 0)
(0 0 -1)
(-0.942115 -0.335289 0)
(0 0 -1)
(-0.915795 -0.401647 0)
(0 0 -1)
(-0.884809 -0.465954 0)
(0 0 -1)
(-0.849313 -0.527889 0)
(0 0 -1)
(-0.765543 -0.643385 -0)
(0 0 1)
(-0.80949 -0.587134 -0)
(0 -0 1)
(-0.849313 -0.527889 -0)
(0 -0 1)
(-0.884809 -0.465954 -0)
(0 -0 1)
(-0.915795 -0.401647 -0)
(0 -0 1)
(-0.942115 -0.335289 -0)
(0 -0 1)
(-0.963635 -0.26722 -0)
(0 -0 1)
(-0.98024 -0.197812 -0)
(0 -0 1)
(-0.991855 -0.127369 -0)
(0 -0 1)
(-0.998415 -0.056278 -0)
(0 -0 1)
(-0.999886 0.0150846 0)
(0 0 1)
(-0.996262 0.086378 0)
(0 0 1)
(-0.987563 0.157227 0)
(0 0 1)
(-0.973828 0.227285 0)
(0 0 1)
(-0.955134 0.296175 0)
(0 0 1)
(-0.931572 0.363558 0)
(0 0 1)
(-0.903262 0.429089 0)
(-0 0 1)
(-0.87035 0.492434 0)
(-0 0 1)
(-0.833002 0.55327 0)
(-0 0 1)
(-0.79141 0.611286 0)
(-0 0 1)
(-0.745785 0.666187 0)
(-0 0 1)
(-0.696359 0.717693 0)
(-0 0 1)
(-0.643385 0.765543 0)
(-0 0 1)
(-0.587134 0.80949 0)
(-0 0 1)
(-0.527889 0.849313 0)
(-0 0 1)
(-0.465954 0.884809 0)
(-0 0 1)
(-0.401647 0.915795 0)
(-0 0 1)
(-0.335289 0.942115 0)
(-0 0 1)
(-0.26722 0.963635 0)
(-0 0 1)
(-0.197812 0.98024 0)
(-0 0 1)
(-0.127369 0.991855 0)
(-0 0 1)
(-0.056278 0.998415 0)
(-0 0 1)
(0.0150846 0.999886 0)
(0 0 1)
(0.086378 0.996262 0)
(0 0 1)
(0.157227 0.987563 0)
(0 0 1)
(0.227285 0.973828 0)
(0 0 1)
(0.296175 0.955134 0)
(0 0 1)
(0.363558 0.931572 0)
(0 0 1)
(0.429089 0.903262 0)
(0 0 1)
(0.492434 0.87035 0)
(0 0 1)
(0.55327 0.833002 0)
(0 0 1)
(0.611286 0.79141 0)
(0 0 1)
(0.666187 0.745785 0)
(0 0 1)
(0.717693 0.696359 0)
(0 0 1)
(0.765543 0.643385 0)
(0 0 1)
(0.80949 0.587134 0)
(0 0 1)
(0.849313 0.527889 0)
(0 0 1)
(0.884809 0.465954 0)
(0 0 1)
(0.915795 0.401647 0)
(0 0 1)
(0.942115 0.335289 0)
(0 0 1)
(0.963635 0.26722 0)
(0 0 1)
(0.98024 0.197812 0)
(0 0 1)
(0.991855 0.127369 0)
(0 0 1)
(0.998415 0.056278 0)
(0 0 1)
(0.999886 -0.0150846 0)
(0 0 1)
(0.996262 -0.086378 0)
(0 0 1)
(0.987563 -0.157227 0)
(0 0 1)
(0.973828 -0.227285 0)
(0 0 1)
(0.955134 -0.296175 0)
(0 0 1)
(0.931572 -0.363558 0)
(0 0 1)
(0.903262 -0.429089 0)
(0 0 1)
(0.87035 -0.492434 0)
(0 0 1)
(0.833002 -0.55327 0)
(0 0 1)
(0.79141 -0.611286 0)
(0 0 1)
(0.745785 -0.666187 0)
(0 0 1)
(0.696359 -0.717693 0)
(0 0 1)
(0.643385 -0.765543 0)
(0 0 1)
(0.587134 -0.80949 0)
(0 0 1)
(0.527889 -0.849313 0)
(0 0 1)
(0.465954 -0.884809 0)
(0 0 1)
(0.401647 -0.915795 0)
(0 0 1)
(0.335289 -0.942115 0)
(0 0 1)
(0.26722 -0.963635 0)
(0 0 1)
(0.197812 -0.98024 0)
(0 0 1)
(0.127369 -0.991855 0)
(0 0 1)
(0.056278 -0.998415 0)
(0 0 1)
(-0.0150846 -0.999886 -0)
(0 0 1)
(-0.086378 -0.996262 -0)
(0 0 1)
(-0.157227 -0.987563 -0)
(0 0 1)
(-0.227285 -0.973828 -0)
(0 0 1)
(-0.296175 -0.955134 -0)
(0 0 1)
(-0.363558 -0.931572 -0)
(0 0 1)
(-0.429089 -0.903262 -0)
(0 0 1)
(-0.492434 -0.87035 -0)
(0 0 1)
(-0.55327 -0.833002 -0)
(0 0 1)
(-0.611286 -0.79141 -0)
(0 0 1)
(-0.666187 -0.745785 -0)
(0 0 1)
(-0.717693 -0.696359 -0)
(0 0 1)
(0.766054 0.642777 -0)
(0 0 -1)
(0.809023 0.587777 -0)
(0 0 -1)
(0.848056 0.529907 -0)
(0 0 -1)
(0.882953 0.469461 -0)
(0 0 -1)
(0.91355 0.406726 -0)
(0 0 -1)
(0.939695 0.342013 -0)
(0 0 -1)
(0.961267 0.275618 -0)
(0 0 -1)
(0.97815 0.2079 -0)
(0 0 -1)
(0.99027 0.139161 -0)
(0 0 -1)
(0.997565 0.0697448 -0)
(0 0 -1)
(1 -1.2971e-05 0)
(0 0 -1)
(0.997563 -0.0697708 0)
(0 0 -1)
(0.990268 -0.139175 0)
(0 0 -1)
(0.978145 -0.207925 0)
(0 0 -1)
(0.961256 -0.275656 0)
(0 0 -1)
(0.93969 -0.342027 0)
(0 0 -1)
(0.913539 -0.40675 0)
(0 0 -1)
(0.882942 -0.469482 0)
(0 0 -1)
(0.848042 -0.529929 0)
(0 0 -1)
(0.809009 -0.587796 0)
(0 0 -1)
(0.766036 -0.642797 0)
(0 0 -1)
(0.719331 -0.694667 0)
(0 0 -1)
(0.669122 -0.743153 0)
(0 0 -1)
(0.615651 -0.788019 0)
(0 0 -1)
(0.559183 -0.829044 0)
(0 0 -1)
(0.49999 -0.866031 0)
(0 -0 -1)
(0.438364 -0.898797 0)
(0 -0 -1)
(0.374592 -0.92719 0)
(0 -0 -1)
(0.309005 -0.95106 0)
(5.27287e-15 7.82877e-15 -1)
(0.241915 -0.970297 0)
(0 -0 -1)
(0.173635 -0.98481 0)
(0 -0 -1)
(0.104506 -0.994524 0)
(0 -0 -1)
(0.0348919 -0.999391 0)
(0 -0 -1)
(-0.0349188 -0.99939 0)
(0 -0 -1)
(-0.104531 -0.994522 0)
(0 -0 -1)
(-0.173662 -0.984805 0)
(0 -0 -1)
(-0.241941 -0.970291 0)
(0 -0 -1)
(-0.309019 -0.951056 0)
(0 -0 -1)
(-0.374617 -0.92718 0)
(0 -0 -1)
(-0.438387 -0.898786 0)
(0 -0 -1)
(-0.500011 -0.866019 0)
(0 -0 -1)
(-0.559204 -0.82903 0)
(0 -0 -1)
(-0.615671 -0.788004 0)
(0 -0 -1)
(-0.66914 -0.743136 0)
(0 -0 -1)
(-0.719347 -0.694651 0)
(0 -0 -1)
(-0.766054 -0.642777 0)
(0 -0 -1)
(-0.809023 -0.587777 0)
(-0 0 -1)
(-0.848056 -0.529907 0)
(-0 0 -1)
(-0.882953 -0.469461 0)
(-0 0 -1)
(-0.91355 -0.406726 0)
(-0 0 -1)
(-0.939695 -0.342013 0)
(-0 0 -1)
(-0.961267 -0.275618 0)
(-0 0 -1)
(-0.97815 -0.2079 0)
(-0 0 -1)
(-0.99027 -0.139161 0)
(-0 0 -1)
(-0.997565 -0.0697448 0)
(-0 0 -1)
(-1 1.2971e-05 0)
(-0 0 -1)
(-0.997563 0.0697708 0)
(-0 0 -1)
(-0.990268 0.139175 0)
(-0 0 -1)
(-0.978145 0.207925 0)
(-0 0 -1)
(-0.961256 0.275656 0)
(-0 0 -1)
(-0.93969 0.342027 0)
(-0 0 -1)
(-0.913539 0.40675 0)
(-0 0 -1)
(-0.882942 0.469482 0)
(0 0 -1)
(-0.848042 0.529929 0)
(8.87195e-15 3.22207e-15 -1)
(-0.809009 0.587796 0)
(0 0 -1)
(-0.766036 0.642797 0)
(0 0 -1)
(-0.719331 0.694667 0)
(0 0 -1)
(-0.669122 0.743153 0)
(0 0 -1)
(-0.615651 0.788019 0)
(0 0 -1)
(-0.559183 0.829044 0)
(0 0 -1)
(-0.49999 0.866031 0)
(0 0 -1)
(-0.438364 0.898797 0)
(0 0 -1)
(-0.374592 0.92719 0)
(0 0 -1)
(-0.309005 0.95106 0)
(0 0 -1)
(-0.241915 0.970297 0)
(0 0 -1)
(-0.173635 0.98481 0)
(0 0 -1)
(-0.104506 0.994524 0)
(0 0 -1)
(-0.0348919 0.999391 0)
(0 0 -1)
(0.0349188 0.99939 -0)
(0 0 -1)
(0.104531 0.994522 -0)
(0 0 -1)
(0.173662 0.984805 -0)
(0 0 -1)
(0.241941 0.970291 -0)
(0 0 -1)
(0.309019 0.951056 -0)
(0 0 -1)
(0.374617 0.92718 -0)
(0 0 -1)
(0.438387 0.898786 -0)
(0 0 -1)
(0.500011 0.866019 -0)
(0 0 -1)
(0.559204 0.82903 -0)
(0 0 -1)
(0.615671 0.788004 -0)
(0 0 -1)
(0.66914 0.743136 -0)
(0 0 -1)
(0.719347 0.694651 -0)
(0 0 -1)
(0.809023 0.587777 0)
(0 0 1)
(0.766054 0.642777 0)
(0 -0 1)
(0.719347 0.694651 0)
(0 -0 1)
(0.66914 0.743136 0)
(0 -0 1)
(0.615671 0.788004 0)
(0 -0 1)
(0.559204 0.82903 0)
(0 -0 1)
(0.500011 0.866019 0)
(0 -0 1)
(0.438387 0.898786 0)
(0 -0 1)
(0.374617 0.92718 0)
(0 -0 1)
(0.309019 0.951056 0)
(0 -0 1)
(0.241941 0.970291 0)
(0 -0 1)
(0.173662 0.984805 0)
(0 -0 1)
(0.104531 0.994522 0)
(0 -0 1)
(0.0349188 0.99939 0)
(0 -0 1)
(-0.0348919 0.999391 0)
(0 -0 1)
(-0.104506 0.994524 0)
(0 -0 1)
(-0.173635 0.98481 0)
(0 -0 1)
(-0.241915 0.970297 0)
(0 -0 1)
(-0.309005 0.95106 0)
(0 -0 1)
(-0.374592 0.92719 0)
(0 -0 1)
(-0.438364 0.898797 0)
(0 -0 1)
(-0.49999 0.866031 0)
(0 -0 1)
(-0.559183 0.829044 0)
(0 0 1)
(-0.615651 0.788019 0)
(0 0 1)
(-0.669122 0.743153 0)
(0 0 1)
(-0.719331 0.694667 0)
(0 0 1)
(-0.766036 0.642797 0)
(0 0 1)
(-0.809009 0.587796 0)
(0 0 1)
(-0.848042 0.529929 0)
(0 0 1)
(-0.882942 0.469482 0)
(0 0 1)
(-0.913539 0.40675 0)
(0 0 1)
(-0.93969 0.342027 0)
(0 0 1)
(-0.961256 0.275656 0)
(0 0 1)
(-0.978145 0.207925 0)
(0 0 1)
(-0.990268 0.139175 0)
(0 0 1)
(-0.997563 0.0697708 0)
(0 0 1)
(-1 1.2971e-05 0)
(0 0 1)
(-0.997565 -0.0697448 -0)
(0 0 1)
(-0.99027 -0.139161 -0)
(0 0 1)
(-0.97815 -0.2079 -0)
(0 0 1)
(-0.961267 -0.275618 -0)
(0 0 1)
(-0.939695 -0.342013 -0)
(0 0 1)
(-0.91355 -0.406726 -0)
(0 0 1)
(-0.882953 -0.469461 -0)
(0 0 1)
(-0.848056 -0.529907 -0)
(0 0 1)
(-0.809023 -0.587777 -0)
(0 0 1)
(-0.766054 -0.642777 -0)
(0 0 1)
(-0.719347 -0.694651 -0)
(0 0 1)
(-0.66914 -0.743136 -0)
(0 0 1)
(-0.615671 -0.788004 -0)
(0 0 1)
(-0.559204 -0.82903 -0)
(0 0 1)
(-0.500011 -0.866019 -0)
(0 0 1)
(-0.438387 -0.898786 -0)
(0 0 1)
(-0.374617 -0.92718 -0)
(0 0 1)
(-0.309019 -0.951056 -0)
(0 0 1)
(-0.241941 -0.970291 -0)
(0 0 1)
(-0.173662 -0.984805 -0)
(0 0 1)
(-0.104531 -0.994522 -0)
(0 0 1)
(-0.0349188 -0.99939 -0)
(0 0 1)
(0.0348919 -0.999391 0)
(0 0 1)
(0.104506 -0.994524 0)
(0 0 1)
(0.173635 -0.98481 0)
(0 0 1)
(0.241915 -0.970297 0)
(0 0 1)
(0.309005 -0.95106 0)
(0 0 1)
(0.374592 -0.92719 0)
(0 0 1)
(0.438364 -0.898797 0)
(0 0 1)
(0.49999 -0.866031 0)
(0 0 1)
(0.559183 -0.829044 0)
(0 0 1)
(0.615651 -0.788019 0)
(0 0 1)
(0.669122 -0.743153 0)
(0 0 1)
(0.719331 -0.694667 0)
(0 0 1)
(0.766036 -0.642797 0)
(0 0 1)
(0.809009 -0.587796 0)
(0 0 1)
(0.848042 -0.529929 0)
(0 0 1)
(0.882942 -0.469482 0)
(0 0 1)
(0.913539 -0.40675 0)
(-0 0 1)
(0.93969 -0.342027 0)
(-0 0 1)
(0.961256 -0.275656 0)
(-0 0 1)
(0.978145 -0.207925 0)
(-0 0 1)
(0.990268 -0.139175 0)
(-0 0 1)
(0.997563 -0.0697708 0)
(-0 0 1)
(1 -1.2971e-05 0)
(-0 0 1)
(0.997565 0.0697448 0)
(-0 0 1)
(0.99027 0.139161 0)
(-0 0 1)
(0.97815 0.2079 0)
(-0 0 1)
(0.961267 0.275618 0)
(-0 0 1)
(0.939695 0.342013 0)
(-0 0 1)
(0.91355 0.406726 0)
(-0 0 1)
(0.882953 0.469461 0)
(-0 0 1)
(0.848056 0.529907 0)
(-0 0 1)
)

// normal volume types

712
(
0
0
0
0
0
0
0
0
0
0
0
0
0
0
0
0
0
0
0
0
0
0
0
0
0
0
0
0
0
0
0
0
0
0
0
0
0
0
0
0
0
0
0
0
0
0
0
0
0
0
0
0
0
0
0
0
0
0
0
0
0
0
0
0
0
0
0
0
0
0
0
0
0
0
0
0
0
0
0
0
0
0
0
0
0
0
0
0
0
0
0
0
0
0
0
0
0
0
0
0
0
0
0
0
0
0
0
0
0
0
0
0
0
0
0
0
0
0
0
0
0
0
0
0
0
0
0
0
0
0
0
0
0
0
0
0
0
0
0
0
0
0
0
0
0
0
0
0
0
0
0
0
0
0
0
0
0
0
0
0
0
0
0
0
0
0
0
0
0
0
0
0
0
0
0
0
0
0
0
0
0
0
0
0
0
0
0
0
0
0
0
0
0
0
0
0
0
0
0
0
0
0
0
0
0
0
0
0
0
0
0
0
0
0
0
0
0
0
0
0
0
0
0
0
0
0
0
0
0
0
0
0
0
0
0
0
0
0
0
0
0
0
0
0
0
0
0
0
0
0
0
0
0
0
0
0
0
0
0
0
0
0
0
0
0
0
0
0
0
0
0
0
0
0
0
0
0
0
0
0
0
0
0
0
0
0
0
0
0
0
0
0
0
0
0
0
0
0
0
0
0
0
0
0
0
0
0
0
0
0
0
0
0
0
0
0
0
0
0
0
0
0
0
0
0
0
0
0
0
0
0
0
0
0
0
0
0
0
0
0
0
0
0
0
0
0
0
0
0
0
0
0
0
0
0
0
0
0
0
0
0
0
0
0
0
0
0
0
0
0
0
0
0
0
0
0
0
0
0
0
0
0
0
0
0
0
0
0
0
0
0
0
0
0
0
0
0
0
0
0
0
0
0
0
0
0
0
0
0
0
0
0
0
0
0
0
0
0
0
0
0
0
0
0
0
0
0
0
0
0
0
0
0
0
0
0
0
0
0
0
0
0
0
0
0
0
0
0
0
0
0
0
0
0
0
0
0
0
0
0
0
0
0
0
0
0
0
0
0
0
0
0
0
0
0
0
0
0
0
0
0
0
0
0
0
0
0
0
0
0
0
0
0
0
0
0
0
0
0
0
0
0
0
0
0
0
0
0
0
0
0
0
0
0
0
0
0
0
0
0
0
0
0
0
0
0
0
0
0
0
0
0
0
0
0
0
0
0
0
0
0
0
0
0
0
0
0
0
0
0
0
0
0
0
0
0
0
0
0
0
0
0
0
0
0
0
0
0
0
0
0
0
0
0
0
0
0
0
0
0
0
0
0
0
0
0
0
0
0
0
0
0
0
0
0
0
0
0
0
0
0
0
0
0
0
0
0
0
0
0
0
0
0
0
0
0
0
0
0
0
0
0
0
0
0
0
0
0
0
0
0
0
0
0
0
0
0
0
0
0
0
0
0
0
0
0
0
0
0
0
0
0
0
0
0
0
0
0
0
0
0
0
0
0
0
0
0
0
0
0
0
0
0
0
0
0
0
0
0
0
0
0
0
0
0
0
0
0
0
0
0
0
0
0
0
0
0
0
0
0
0
0
0
0
0
0
0
0
0
0
0
0
)

// normalDirections

356
(
2(1 -1)
2(1 -1)
2(1 -1)
2(1 -1)
2(1 -1)
2(1 -1)
2(1 -1)
2(1 -1)
2(1 -1)
2(1 -1)
2(1 -1)
2(1 -1)
2(1 -1)
2(1 -1)
2(1 -1)
2(1 -1)
2(1 -1)
2(1 -1)
2(1 -1)
2(1 -1)
2(1 -1)
2(1 -1)
2(1 -1)
2(1 -1)
2(1 -1)
2(1 -1)
2(1 -1)
2(1 -1)
2(1 -1)
2(1 -1)
2(1 -1)
2(1 -1)
2(1 -1)
2(1 -1)
2(1 -1)
2(1 -1)
2(1 -1)
2(1 -1)
2(1 -1)
2(1 -1)
2(1 -1)
2(1 -1)
2(1 -1)
2(1 -1)
2(1 -1)
2(1 -1)
2(1 -1)
2(1 -1)
2(1 -1)
2(1 -1)
2(1 -1)
2(1 -1)
2(1 -1)
2(1 -1)
2(1 -1)
2(1 -1)
2(1 -1)
2(1 -1)
2(1 -1)
2(1 -1)
2(1 -1)
2(1 -1)
2(1 -1)
2(1 -1)
2(1 -1)
2(1 -1)
2(1 -1)
2(1 -1)
2(1 -1)
2(1 -1)
2(1 -1)
2(1 -1)
2(1 -1)
2(1 -1)
2(1 -1)
2(1 -1)
2(1 -1)
2(1 -1)
2(1 -1)
2(1 -1)
2(1 -1)
2(1 -1)
2(1 -1)
2(1 -1)
2(1 -1)
2(1 -1)
2(1 -1)
2(1 -1)
2(1 -1)
2(1 -1)
2(1 -1)
2(1 -1)
2(1 -1)
2(1 -1)
2(1 -1)
2(1 -1)
2(1 -1)
2(1 -1)
2(1 -1)
2(1 -1)
2(1 -1)
2(1 -1)
2(1 -1)
2(1 -1)
2(1 -1)
2(1 -1)
2(1 -1)
2(1 -1)
2(1 -1)
2(1 -1)
2(1 -1)
2(1 -1)
2(1 -1)
2(1 -1)
2(1 -1)
2(1 -1)
2(1 -1)
2(1 -1)
2(1 -1)
2(1 -1)
2(1 -1)
2(1 -1)
2(1 -1)
2(1 -1)
2(1 -1)
2(1 -1)
2(1 -1)
2(1 -1)
2(1 -1)
2(1 -1)
2(1 -1)
2(1 -1)
2(1 -1)
2(1 -1)
2(1 -1)
2(1 -1)
2(1 -1)
2(1 -1)
2(1 -1)
2(1 -1)
2(1 -1)
2(1 -1)
2(1 -1)
2(1 -1)
2(1 -1)
2(1 -1)
2(1 -1)
2(1 -1)
2(1 -1)
2(1 -1)
2(1 -1)
2(1 -1)
2(1 -1)
2(1 -1)
2(1 -1)
2(1 -1)
2(1 -1)
2(1 -1)
2(1 -1)
2(1 -1)
2(1 -1)
2(1 -1)
2(1 -1)
2(1 -1)
2(1 -1)
2(1 -1)
2(1 -1)
2(1 -1)
2(1 -1)
2(1 -1)
2(1 -1)
2(1 -1)
2(1 -1)
2(1 -1)
2(1 -1)
2(1 -1)
2(1 -1)
2(1 -1)
2(1 -1)
2(1 -1)
2(1 -1)
2(1 -1)
2(1 -1)
2(1 -1)
2(1 -1)
2(1 -1)
2(1 -1)
2(1 -1)
2(1 -1)
2(1 -1)
2(1 -1)
2(1 -1)
2(1 -1)
2(1 -1)
2(1 -1)
2(1 -1)
2(1 -1)
2(1 -1)
2(1 -1)
2(1 -1)
2(1 -1)
2(1 -1)
2(1 -1)
2(1 -1)
2(1 -1)
2(1 -1)
2(1 -1)
2(1 -1)
2(1 -1)
2(1 -1)
2(1 -1)
2(1 -1)
2(1 -1)
2(1 -1)
2(1 -1)
2(1 -1)
2(1 -1)
2(1 -1)
2(1 -1)
2(1 -1)
2(1 -1)
2(1 -1)
2(1 -1)
2(1 -1)
2(1 -1)
2(1 -1)
2(1 -1)
2(1 -1)
2(1 -1)
2(1 -1)
2(1 -1)
2(1 -1)
2(1 -1)
2(1 -1)
2(1 -1)
2(1 -1)
2(1 -1)
2(1 -1)
2(1 -1)
2(1 -1)
2(1 -1)
2(1 -1)
2(1 -1)
2(1 -1)
2(1 -1)
2(1 -1)
2(1 -1)
2(1 -1)
2(1 -1)
2(1 -1)
2(1 -1)
2(1 -1)
2(1 -1)
2(1 -1)
2(1 -1)
2(1 -1)
2(1 -1)
2(1 -1)
2(1 -1)
2(1 -1)
2(1 -1)
2(1 -1)
2(1 -1)
2(1 -1)
2(1 -1)
2(1 -1)
2(1 -1)
2(1 -1)
2(1 -1)
2(1 -1)
2(1 -1)
2(1 -1)
2(1 -1)
2(1 -1)
2(1 -1)
2(1 -1)
2(1 -1)
2(1 -1)
2(1 -1)
2(1 -1)
2(1 -1)
2(1 -1)
2(1 -1)
2(1 -1)
2(1 -1)
2(1 -1)
2(1 -1)
2(1 -1)
2(1 -1)
2(1 -1)
2(1 -1)
2(1 -1)
2(1 -1)
2(1 -1)
2(1 -1)
2(1 -1)
2(1 -1)
2(1 -1)
2(1 -1)
2(1 -1)
2(1 -1)
2(1 -1)
2(1 -1)
2(1 -1)
2(1 -1)
2(1 -1)
2(1 -1)
2(1 -1)
2(1 -1)
2(1 -1)
2(1 -1)
2(1 -1)
2(1 -1)
2(1 -1)
2(1 -1)
2(1 -1)
2(1 -1)
2(1 -1)
2(1 -1)
2(1 -1)
2(1 -1)
2(1 -1)
2(1 -1)
2(1 -1)
2(1 -1)
2(1 -1)
2(1 -1)
2(1 -1)
2(1 -1)
2(1 -1)
2(1 -1)
2(1 -1)
2(1 -1)
2(1 -1)
2(1 -1)
2(1 -1)
2(1 -1)
2(1 -1)
2(1 -1)