/*--------------------------------*- C++ -*----------------------------------*\
  =========                 |
  \\      /  F ield         | OpenFOAM: The Open Source CFD Toolbox
   \\    /   O peration     | Website:  https://openfoam.org
    \\  /    A nd           | Version:  8
     \\/     M anipulation  |
\*---------------------------------------------------------------------------*/
FoamFile
{
    version     2.0;
    format      ascii;
    class       extendedFeatureEdgeMesh;
    location    "constant/extendedFeatureEdgeMesh";
    object      stirrer.extendedFeatureEdgeMesh;
}
// * * * * * * * * * * * * * * * * * * * * * * * * * * * * * * * * * * * * * //

// points

135
(
(-0.00701427 0.000223732 0.000910833)
(-0.00697486 -0.00077549 0.000910833)
(-0.00697486 -0.00077549 0.00391083)
(-0.00701427 0.000223732 0.00391083)
(-0.00195475 0.0067401 0.000910833)
(-0.00289288 0.00639384 0.000910833)
(-0.00289288 0.00639384 0.00391083)
(-0.00195475 0.0067401 0.00391083)
(0.00580617 0.00394188 0.000910833)
(0.00518695 0.0047271 0.000910833)
(0.00518695 0.0047271 0.00391083)
(0.00580617 0.00394188 0.00391083)
(0.00554316 -0.00430389 0.000910833)
(0.0060986 -0.00347233 0.000910833)
(0.0060986 -0.00347233 0.00391083)
(0.00554316 -0.00430389 0.00391083)
(-0.00238031 -0.00660183 0.000910833)
(-0.00141781 -0.00687312 0.000910833)
(-0.00141781 -0.00687312 0.00391083)
(-0.00238031 -0.00660183 0.00391083)
(-0.00195469 0.000423292 0.000910833)
(-0.00191528 -0.000575931 0.000910833)
(-0.00191528 -0.000575931 0.00391083)
(-0.00195469 0.000423292 0.00391083)
(-0.000201459 0.00198983 0.000910833)
(-0.0011396 0.00164357 0.000910833)
(-0.0011396 0.00164357 0.00391083)
(-0.000201459 0.00198983 0.00391083)
(0.00183018 0.000806489 0.000910833)
(0.00121097 0.00159171 0.000910833)
(0.00121097 0.00159171 0.00391083)
(0.00183018 0.000806489 0.00391083)
(0.00133257 -0.00149139 0.000910833)
(0.00188802 -0.000659836 0.000910833)
(0.00188802 -0.000659836 0.00391083)
(0.00133257 -0.00149139 0.00391083)
(-0.00100661 -0.00172822 0.000910833)
(-4.41114e-05 -0.00199951 0.000910833)
(-4.41114e-05 -0.00199951 0.00391083)
(-0.00100661 -0.00172822 0.00391083)
(-0.00189529 -0.000638657 0.007)
(-0.00195574 -0.000418448 0.007)
(-0.00199069 -0.000192783 0.007)
(-0.00199969 3.53949e-05 0.007)
(-0.00198262 0.000263111 0.007)
(-0.0019397 0.000487398 0.007)
(-0.0018715 0.00070533 0.007)
(-0.0017789 0.000914067 0.007)
(-0.00166311 0.00111089 0.007)
(-0.00152564 0.00129323 0.007)
(-0.00136827 0.00145871 0.007)
(-0.00119307 0.00160517 0.007)
(-0.00100232 0.00173071 0.007)
(-0.000798504 0.00183368 0.007)
(-0.000584275 0.00191275 0.007)
(-0.000362429 0.00196689 0.007)
(-0.000135858 0.00199538 0.007)
(9.24836e-05 0.00199786 0.007)
(0.00031962 0.0019743 0.007)
(0.000542589 0.00192499 0.007)
(0.000758485 0.00185059 0.007)
(0.000964493 0.00175207 0.007)
(0.00115793 0.00163071 0.007)
(0.00133627 0.00148808 0.007)
(0.00149718 0.00132606 0.007)
(0.00163859 0.00114675 0.007)
(0.00175862 0.000952492 0.007)
(0.00185574 0.000745815 0.007)
(0.00192866 0.000529416 0.007)
(0.00197644 0.000306114 0.007)
(0.00199845 7.88226e-05 0.007)
(0.0019944 -0.000149497 0.007)
(0.00196436 -0.000375868 0.007)
(0.00190871 -0.000597338 0.007)
(0.00182818 -0.000811021 0.007)
(0.00172381 -0.00101413 0.007)
(0.00159698 -0.00120402 0.007)
(0.00144932 -0.00137822 0.007)
(0.00128277 -0.00153444 0.007)
(0.00109949 -0.00167066 0.007)
(0.000901884 -0.00178511 0.007)
(0.000692518 -0.00187628 0.007)
(0.000474125 -0.00194299 0.007)
(0.000249551 -0.00198437 0.007)
(2.17227e-05 -0.00199988 0.007)
(-0.000206388 -0.00198932 0.007)
(-0.000431809 -0.00195283 0.007)
(-0.0006516 -0.00189088 0.007)
(-0.000862896 -0.00180428 0.007)
(-0.00106294 -0.00169415 0.007)
(-0.00124913 -0.00156194 0.007)
(-0.00141904 -0.00140937 0.007)
(-0.00157045 -0.00123843 0.007)
(-0.00170138 -0.00105134 0.007)
(-0.00181013 -0.000850541 0.007)
(-0.00198743 0.000223903 0.000910833)
(-0.00199988 2.22287e-05 0.000910833)
(-0.00199191 -0.000179672 0.000910833)
(-0.00196362 -0.00037974 0.000910833)
(-0.00196362 -0.00037974 0.00391083)
(-0.00199191 -0.000179672 0.00391083)
(-0.00199988 2.22287e-05 0.00391083)
(-0.00198743 0.000223903 0.00391083)
(-0.000401205 0.00195935 0.000910833)
(-0.000596855 0.00190886 0.000910833)
(-0.000786414 0.0018389 0.000910833)
(-0.000967945 0.00175017 0.000910833)
(-0.000967945 0.00175017 0.00391083)
(-0.000786414 0.0018389 0.00391083)
(-0.000596855 0.00190886 0.00391083)
(-0.000401205 0.00195935 0.00391083)
(0.00173947 0.000987039 0.000910833)
(0.001631 0.00115751 0.000910833)
(0.00150588 0.00131617 0.000910833)
(0.0013654 0.0014614 0.000910833)
(0.0013654 0.0014614 0.00391083)
(0.00150588 0.00131617 0.00391083)
(0.001631 0.00115751 0.00391083)
(0.00173947 0.000987039 0.00391083)
(0.00147626 -0.00134932 0.000910833)
(0.00160487 -0.00119348 0.000910833)
(0.0017171 -0.00102546 0.000910833)
(0.00181181 -0.00084697 0.000910833)
(0.00181181 -0.00084697 0.00391083)
(0.0017171 -0.00102546 0.00391083)
(0.00160487 -0.00119348 0.00391083)
(0.00147626 -0.00134932 0.00391083)
(-0.000827093 -0.00182097 0.000910833)
(-0.000639136 -0.00189513 0.000910833)
(-0.000444656 -0.00194994 0.000910833)
(-0.000245637 -0.00198486 0.000910833)
(-0.000245637 -0.00198486 0.00391083)
(-0.000444656 -0.00194994 0.00391083)
(-0.000639136 -0.00189513 0.00391083)
(-0.000827093 -0.00182097 0.00391083)
)

// edges

155
(
(0 20)
(1 0)
(21 1)
(22 2)
(2 1)
(3 2)
(23 3)
(3 0)
(4 24)
(5 4)
(25 5)
(26 6)
(6 5)
(7 6)
(27 7)
(7 4)
(8 28)
(9 8)
(29 9)
(30 10)
(10 9)
(11 10)
(31 11)
(11 8)
(12 32)
(13 12)
(33 13)
(34 14)
(14 13)
(15 14)
(35 15)
(15 12)
(16 36)
(17 16)
(37 17)
(38 18)
(18 17)
(19 18)
(39 19)
(19 16)
(40 41)
(41 42)
(42 43)
(43 44)
(44 45)
(45 46)
(46 47)
(47 48)
(48 49)
(49 50)
(50 51)
(51 52)
(52 53)
(53 54)
(54 55)
(55 56)
(56 57)
(57 58)
(58 59)
(59 60)
(60 61)
(61 62)
(62 63)
(63 64)
(64 65)
(65 66)
(66 67)
(67 68)
(68 69)
(69 70)
(70 71)
(71 72)
(72 73)
(73 74)
(74 75)
(75 76)
(76 77)
(77 78)
(78 79)
(79 80)
(80 81)
(81 82)
(82 83)
(83 84)
(84 85)
(85 86)
(86 87)
(87 88)
(88 89)
(89 90)
(90 91)
(91 92)
(92 93)
(93 94)
(94 40)
(20 95)
(95 96)
(96 97)
(97 98)
(98 21)
(21 22)
(22 99)
(99 100)
(100 101)
(101 102)
(102 23)
(23 20)
(24 103)
(103 104)
(104 105)
(105 106)
(106 25)
(25 26)
(26 107)
(107 108)
(108 109)
(109 110)
(110 27)
(27 24)
(28 111)
(111 112)
(112 113)
(113 114)
(114 29)
(29 30)
(30 115)
(115 116)
(116 117)
(117 118)
(118 31)
(31 28)
(32 119)
(119 120)
(120 121)
(121 122)
(122 33)
(33 34)
(34 123)
(123 124)
(124 125)
(125 126)
(126 35)
(35 32)
(36 127)
(127 128)
(128 129)
(129 130)
(130 37)
(37 38)
(38 131)
(131 132)
(132 133)
(133 134)
(134 39)
(39 36)
)

// concaveStart mixedStart nonFeatureStart
20 20 40
// internalStart flatStart openStart multipleStart
95 155 155 155
// normals

258
(
(0 0 -1)
(-0.0394113 0.999223 0)
(0 0 -1)
(-0.999223 -0.0394112 -0)
(0 -0 -1)
(0.0394113 -0.999223 0)
(0.0394113 -0.999223 0)
(0 0 1)
(0 -0 1)
(-0.999223 -0.0394112 -0)
(0 0 1)
(-0.0394113 0.999223 0)
(-0 0 -1)
(0.938139 0.346259 -0)
(0 -0 -1)
(-0.34626 0.938139 0)
(-0 0 -1)
(-0.938139 -0.346259 0)
(-0.938139 -0.346259 -0)
(0 -0 1)
(-0 0 1)
(-0.34626 0.938139 0)
(0 0 1)
(0.938139 0.346259 0)
(0 0 -1)
(0.619213 -0.785223 0)
(-0 0 -1)
(0.785223 0.619213 0)
(0 0 -1)
(-0.619213 0.785223 0)
(-0.619213 0.785223 0)
(-0 0 1)
(0 0 1)
(0.785223 0.619213 0)
(0 0 1)
(0.619213 -0.785223 0)
(0 0 -1)
(-0.555444 -0.831554 0)
(0 0 -1)
(0.831554 -0.555444 0)
(0 0 -1)
(0.555444 0.831554 0)
(0.555444 0.831554 0)
(0 0 1)
(0 0 1)
(0.831554 -0.555444 0)
(0 0 1)
(-0.555444 -0.831554 0)
(0 -0 -1)
(-0.962496 0.271295 0)
(0 0 -1)
(-0.271295 -0.962496 -0)
(0 -0 -1)
(0.962496 -0.271295 0)
(0.962496 -0.271295 0)
(0 0 1)
(0 -0 1)
(-0.271295 -0.962496 -0)
(0 0 1)
(-0.962496 0.271295 0)
(-0.964328 -0.26471 0.00086645)
(0 0 1)
(-0.988217 -0.153056 0.000603922)
(0 0 1)
(-0.999223 -0.0394116 0.000229253)
(0 0 1)
(-0.997202 0.0747478 0.0006037)
(0 0 1)
(-0.982181 0.187935 0.00086636)
(0 0 1)
(-0.954356 0.29867 0.000932094)
(0 0 1)
(-0.914091 0.405509 0.000932055)
(0 0 1)
(-0.861907 0.507066 0.000932038)
(0 0 1)
(-0.798486 0.602012 0.000931917)
(0 0 1)
(-0.72466 0.689106 0.000931967)
(0 0 1)
(-0.641382 0.767221 0.000932035)
(0 0 1)
(-0.549749 0.83533 0.000866294)
(0 0 1)
(-0.450941 0.892553 0.000603711)
(0 0 1)
(-0.346259 0.938139 0.00022921)
(0 0 1)
(-0.23706 0.971495 0.000604115)
(0 0 1)
(-0.124775 0.992185 0.000866464)
(0 0 1)
(-0.0108648 0.999941 0.000931909)
(0 0 1)
(0.103195 0.994661 0.000931677)
(0 0 1)
(0.215905 0.976414 0.000931822)
(0 0 1)
(0.325799 0.945438 0.000931974)
(0.43145 0.902136 0.000932052)
(0 0 1)
(0.531471 0.847076 0.000932027)
(0 0 1)
(0.624566 0.780972 0.000866112)
(0 0 1)
(0.70952 0.704685 0.000603799)
(0 0 1)
(0.785224 0.619211 0.000229299)
(0 0 1)
(0.850689 0.525668 0.000603881)
(0 0 1)
(0.905066 0.425271 0.000866207)
(0 0 1)
(0.947644 0.319327 0.00093195)
(0 0 1)
(0.977867 0.209227 0.000932038)
(0 0 1)
(0.995343 0.0963887 0.000931935)
(0 0 1)
(0.999843 -0.0176961 0.000932)
(0 0 1)
(0.991308 -0.131558 0.000932069)
(0 0 1)
(0.969851 -0.243695 0.000931941)
(0 0 1)
(0.935749 -0.352665 0.000866136)
(0 0 1)
(0.889449 -0.457033 0.000603715)
(0 0 1)
(0.831552 -0.555447 0.000229092)
(0 0 1)
(0.762818 -0.646613 0.000604091)
(0 0 1)
(0.684138 -0.729352 0.000866306)
(0 0 1)
(0.596537 -0.802585 0.0009318)
(0 0 1)
(0.501159 -0.865355 0.000932096)
(0 0 1)
(0.399254 -0.91684 0.00093206)
(0 0 1)
(0.292137 -0.956376 0.000931952)
(0 0 1)
(0.181213 -0.983443 0.000931851)
(0 0 1)
(0.0679297 -0.99769 0.000931879)
(0 0 1)
(-0.0462439 -0.99893 0.000866183)
(0 0 1)
(-0.159808 -0.987148 0.000603935)
(0 0 1)
(-0.271292 -0.962497 0.000229398)
(0 0 1)
(-0.379242 -0.925297 0.000603787)
(-0.482247 -0.876035 0.000866253)
(0 0 1)
(-0.578963 -0.815353 0.000931853)
(0 0 1)
(-0.668133 -0.744041 0.000931905)
(0 0 1)
(-0.748593 -0.663029 0.000931953)
(0 0 1)
(-0.819293 -0.573374 0.000931951)
(0 0 1)
(-0.87931 -0.476249 0.000931929)
(0 0 1)
(-0.927869 -0.372906 0.000931925)
(0 0 1)
(-0.986786 0.162002 0.00279836)
(0 0 -1)
(-0.998097 0.0616107 0.00254424)
(0 0 -1)
(-0.999221 -0.0394096 0.00190779)
(0 0 -1)
(-0.990147 -0.140029 0.000891236)
(-0.970965 -0.239223 -0.00050462)
(-0.952769 -0.303697 0)
(-0.970965 -0.239223 -0.000519785)
(0 0 1)
(-0.990147 -0.140029 -0.00020137)
(0 0 1)
(-0.999223 -0.0394097 0.00022912)
(-0 0 1)
(-0.9981 0.0616109 -0.000201506)
(-0.98679 0.162002 -0.000519962)
(-0.97038 0.241585 0)
(-0.150857 0.988552 0.00279794)
(0 0 -1)
(-0.249833 0.968285 0.00254237)
(0 0 -1)
(-0.34626 0.938136 0.0019078)
(0 0 -1)
(-0.439151 0.898413 0.000891871)
(-0.527559 0.849518 -0.000504528)
(-0.58325 0.812293 0)
(-0.527559 0.849518 -0.000519991)
(0 0 1)
(-0.439151 0.898413 -0.000201426)
(0 0 1)
(-0.346261 0.938138 0.00022938)
(0 0 1)
(-0.249834 0.968289 -0.000201259)
(-0.150857 0.988555 -0.000519563)
(-0.0700999 0.99754 0)
(0.893551 0.448953 0.00279781)
(0 0 -1)
(0.843694 0.536819 0.00254315)
(0 0 -1)
(0.78522 0.619214 0.00190785)
(0 0 -1)
(0.718736 0.695282 0.000891927)
(0.644913 0.764255 -0.000504089)
(0.592311 0.805709 -0)
(0.644913 0.764255 -0.000519927)
(0 0 1)
(0.718737 0.695282 -0.00020135)
(0 0 1)
(0.785222 0.619215 0.000229604)
(0 0 1)
(0.843696 0.536821 -0.000201069)
(0.893554 0.448955 -0.000519825)
(0.927052 0.374933 0)
(0.703102 -0.711084 0.00279795)
(0 0 -1)
(0.771266 -0.636508 0.00254377)
(0 0 -1)
(0.831552 -0.555444 0.00190847)
(0 0 -1)
(0.883354 -0.468706 0.000892668)
(0.926138 -0.377183 -0.000503787)
(0.949309 -0.314344 0)
(0.926138 -0.377183 -0.000519973)
(0 0 1)
(0.883354 -0.468706 -0.000201561)
(0 0 1)
(0.831553 -0.555445 0.000229268)
(0 0 1)
(0.771268 -0.63651 -0.000201334)
(0.703104 -0.711087 -0.000519643)
(0.643052 -0.765822 0)
(-0.459009 -0.888427 0.00279794)
(0 0 -1)
(-0.367026 -0.930207 0.00254254)
(0 0 -1)
(-0.271293 -0.962495 0.00190764)
(0 0 -1)
(-0.172792 -0.984958 0.000892546)
(-0.0725289 -0.997366 -0.000503644)
(-0.00560546 -0.999984 0)
(-0.0725289 -0.997366 -0.000519753)
(0 0 1)
(-0.172792 -0.984958 -0.000201235)
(0 0 1)
(-0.271293 -0.962497 0.000229349)
(0 0 1)
(-0.367028 -0.93021 -0.000201301)
(-0.459011 -0.88843 -0.000519906)
(-0.529625 -0.848232 0)
)

// normal volume types

258
(
0
0
0
0
0
0
0
0
0
0
0
0
0
0
0
0
0
0
0
0
0
0
0
0
0
0
0
0
0
0
0
0
0
0
0
0
0
0
0
0
0
0
0
0
0
0
0
0
0
0
0
0
0
0
0
0
0
0
0
0
0
0
0
0
0
0
0
0
0
0
0
0
0
0
0
0
0
0
0
0
0
0
0
0
0
0
0
0
0
0
0
0
0
0
0
0
0
0
0
0
0
0
0
0
0
0
0
0
0
0
0
0
0
0
0
0
0
0
0
0
0
0
0
0
0
0
0
0
0
0
0
0
0
0
0
0
0
0
0
0
0
0
0
0
0
0
0
0
0
0
0
0
0
0
0
0
0
0
0
0
0
0
0
0
0
0
0
0
0
0
0
0
0
0
0
0
0
0
0
0
0
0
0
0
0
0
0
0
0
0
0
0
0
0
0
0
0
0
0
0
0
0
0
0
0
0
0
0
0
0
0
0
0
0
0
0
0
0
0
0
0
0
0
0
0
0
0
0
0
0
0
0
0
0
0
0
0
0
0
0
0
0
0
0
0
0
0
0
0
0
0
0
0
0
0
0
0
0
)

// normalDirections

155
(
2(1 -1)
2(1 -1)
2(1 -1)
2(1 -1)
2(1 -1)
2(1 -1)
2(1 -1)
2(1 -1)
2(1 -1)
2(1 -1)
2(1 -1)
2(1 -1)
2(1 -1)
2(1 -1)
2(1 -1)
2(1 -1)
2(1 -1)
2(1 -1)
2(1 -1)
2(1 -1)
2(1 -1)
2(1 -1)
2(1 -1)
2(1 -1)
2(1 -1)
2(1 -1)
2(1 -1)
2(1 -1)
2(1 -1)
2(1 -1)
2(1 -1)
2(1 -1)
2(1 -1)
2(1 -1)
2(1 -1)
2(1 -1)
2(1 -1)
2(1 -1)
2(1 -1)
2(1 -1)
2(1 -1)
2(1 -1)
2(1 -1)
2(1 -1)
2(1 -1)
2(1 -1)
2(1 -1)
2(1 -1)
2(1 -1)
2(1 -1)
2(1 -1)
2(1 -1)
2(1 -1)
2(1 -1)
2(1 -1)
2(1 -1)
2(1 -1)
2(1 -1)
2(1 -1)
2(1 -1)
2(1 -1)
2(1 -1)
2(1 -1)
2(1 -1)
2(1 -1)
2(1 -1)
2(1 -1)
2(1 -1)
2(1 -1)
2(1 -1)
2(1 -1)
2(1 -1)
2(1 -1)
2(1 -1)
2(1 -1)
2(1 -1)
2(1 -1)
2(1 -1)
2(1 -1)
2(1 -1)
2(1 -1)
2(1 -1)
2(1 -1)
2(1 -1)
2(1 -1)
2(1 -1)
2(1 -1)
2(1 -1)
2(1 -1)
2(1 -1)
2(1 -1)
2(1 -1)
2(1 -1)
2(1 -1)
2(1 -1)
2(1 -1)
2(1 -1)
2(1 -1)
2(1 -1)
2(1 -1)
2(1 -1)
2(1 -1)
2(1 -1)
2(1 -1)
2(1 -1)
2(1 -1)
2(1 -1)
2(1 -1)
2(1 -1)
2(1 -1)
2(1 -1)
2(1 -1)
2(1 -1)
2(1 -1)
2(1 -1)
2(1 -1)
2(1 -1)
2(1 -1)
2(1 -1)
2(1 -1)
2(1 -1)
2(1 -1)
2(1 -1)
2(1 -1)
2(1 -1)
2(1 -1)
2(1 -1)
2(1 -1)
2(1 -1)
2(1 -1)
2(1 -1)
2(1 -1)
2(1 -1)
2(1 -1)
2(1 -1)
2(1 -1)
2(1 -1)
2(1 -1)
2(1 -1)
2(1 -1)
2(1 -1)
2(1 -1)
2(1 -1)
2(1 -1)
2(1 -1)
2(1 -1)
2(1 -1)
2(1 -1)
2(1 -1)
2(1 -1)
2(1 -1)
2(1 -1)
2(1 -1)
2(1 -1)
2(1 -1)
)

// edgeNormals

155
(
2(0 1)
2(2 3)
2(4 5)
2(6 7)
2(5 3)
2(8 9)
2(10 11)
2(9 11)
2(12 13)
2(14 15)
2(16 17)
2(18 19)
2(17 15)
2(20 21)
2(22 23)
2(21 23)
2(24 25)
2(26 27)
2(28 29)
2(30 31)
2(29 27)
2(32 33)
2(34 35)
2(33 35)
2(36 37)
2(38 39)
2(40 41)
2(42 43)
2(41 39)
2(44 45)
2(46 47)
2(45 47)
2(48 49)
2(50 51)
2(52 53)
2(54 55)
2(53 51)
2(56 57)
2(58 59)
2(57 59)
2(60 61)
2(62 63)
2(64 65)
2(66 67)
2(68 69)
2(70 71)
2(72 73)
2(74 75)
2(76 77)
2(78 79)
2(80 81)
2(82 83)
2(84 85)
2(86 87)
2(88 89)
2(90 91)
2(92 93)
2(94 95)
2(96 97)
2(98 97)
2(99 100)
2(101 102)
2(103 104)
2(105 106)
2(107 108)
2(109 110)
2(111 112)
2(113 114)
2(115 116)
2(117 118)
2(119 120)
2(121 122)
2(123 124)
2(125 126)
2(127 128)
2(129 130)
2(131 132)
2(133 134)
2(135 136)
2(137 138)
2(139 140)
2(141 142)
2(143 144)
2(145 146)
2(147 148)
2(149 150)
2(151 152)
2(153 152)
2(154 155)
2(156 157)
2(158 159)
2(160 161)
2(162 163)
2(164 165)
2(166 167)
2(0 168)
2(169 170)
2(171 172)
2(173 174)
2(4 175)
2(6 176)
2(7 177)
2(178 179)
2(180 181)
2(182 183)
2(10 184)
2(1 185)
2(12 186)
2(187 188)
2(189 190)
2(191 192)
2(16 193)
2(18 194)
2(19 195)
2(196 197)
2(198 199)
2(200 201)
2(22 202)
2(13 203)
2(24 204)
2(205 206)
2(207 208)
2(209 210)
2(28 211)
2(30 212)
2(31 213)
2(214 215)
2(216 217)
2(218 219)
2(34 220)
2(25 221)
2(36 222)
2(223 224)
2(225 226)
2(227 228)
2(40 229)
2(42 230)
2(43 231)
2(232 233)
2(234 235)
2(236 237)
2(46 238)
2(37 239)
2(48 240)
2(241 242)
2(243 244)
2(245 246)
2(52 247)
2(54 248)
2(55 249)
2(250 251)
2(252 253)
2(254 255)
2(58 256)
2(49 257)
)

// featurePointNormals

40
(
3(0 1 3)
3(2 3 5)
3(6 7 3)
3(8 9 11)
3(12 13 15)
3(14 15 17)
3(18 19 15)
3(20 21 23)
3(24 25 27)
3(26 27 29)
3(30 31 27)
3(32 33 35)
3(36 37 39)
3(38 39 41)
3(42 43 39)
3(44 45 47)
3(48 49 51)
3(50 51 53)
3(54 55 51)
3(56 57 59)
4(0 1 168 185)
4(4 5 175 176)
4(6 7 176 177)
4(10 11 184 185)
4(12 13 186 203)
4(16 17 193 194)
4(18 19 194 195)
4(22 23 202 203)
4(24 25 204 221)
4(28 29 211 212)
4(30 31 212 213)
4(34 35 220 221)
4(36 37 222 239)
4(40 41 229 230)
4(42 43 230 231)
4(46 47 238 239)
4(48 49 240 257)
4(52 53 247 248)
4(54 55 248 249)
4(58 59 256 257)
)

// featurePointEdges

40
(
3(1 7 0)
3(2 4 1)
3(4 5 3)
3(6 7 5)
3(9 15 8)
3(10 12 9)
3(12 13 11)
3(14 15 13)
3(17 23 16)
3(18 20 17)
3(20 21 19)
3(22 23 21)
3(25 31 24)
3(26 28 25)
3(28 29 27)
3(30 31 29)
3(33 39 32)
3(34 36 33)
3(36 37 35)
3(38 39 37)
3(0 106 95)
3(2 100 99)
3(3 101 100)
3(6 106 105)
3(8 118 107)
3(10 112 111)
3(11 113 112)
3(14 118 117)
3(16 130 119)
3(18 124 123)
3(19 125 124)
3(22 130 129)
3(24 142 131)
3(26 136 135)
3(27 137 136)
3(30 142 141)
3(32 154 143)
3(34 148 147)
3(35 149 148)
3(38 154 153)
)

// regionEdges
0()


// ************************************************************************* //
