/*--------------------------------*- C++ -*----------------------------------*\
  =========                 |
  \\      /  F ield         | OpenFOAM: The Open Source CFD Toolbox
   \\    /   O peration     | Website:  https://openfoam.org
    \\  /    A nd           | Version:  8
     \\/     M anipulation  |
\*---------------------------------------------------------------------------*/
FoamFile
{
    version     2.0;
    format      ascii;
    class       extendedFeatureEdgeMesh;
    location    "constant/extendedFeatureEdgeMesh";
    object      bottom.extendedFeatureEdgeMesh;
}
// * * * * * * * * * * * * * * * * * * * * * * * * * * * * * * * * * * * * * //

// points

205
(
(-0.00963901 -0.011493 2.25514e-17)
(-0.0103154 -0.0108901 2.25514e-17)
(-0.0109541 -0.0102474 2.25514e-17)
(-0.0115528 -0.00956728 2.25514e-17)
(-0.0121094 -0.00885229 2.25514e-17)
(-0.0126218 -0.00810499 2.25514e-17)
(-0.0130881 -0.00732812 2.25514e-17)
(-0.0135067 -0.00652451 2.08167e-17)
(-0.013876 -0.00569709 2.08167e-17)
(-0.0141947 -0.00484888 2.08167e-17)
(-0.0144615 -0.00398299 2.08167e-17)
(-0.0146756 -0.00310255 1.9082e-17)
(-0.0148362 -0.0022108 1.9082e-17)
(-0.0149426 -0.00131098 1.9082e-17)
(-0.0149945 -0.000406377 1.9082e-17)
(-0.0149917 0.000499709 1.9082e-17)
(-0.0149341 0.00140397 1.73472e-17)
(-0.0148221 0.00230311 1.73472e-17)
(-0.014656 0.00319385 1.56125e-17)
(-0.0144365 0.00407293 1.56125e-17)
(-0.0141642 0.00493715 1.38778e-17)
(-0.0138403 0.00578336 1.38778e-17)
(-0.0134658 0.00660846 1.21431e-17)
(-0.0130422 0.00740945 1.21431e-17)
(-0.0125711 0.0081834 1.21431e-17)
(-0.012054 0.00892749 1.04083e-17)
(-0.011493 0.00963901 1.04083e-17)
(-0.0108901 0.0103154 1.04083e-17)
(-0.0102474 0.0109541 8.67362e-18)
(-0.00956728 0.0115528 8.67362e-18)
(-0.00885229 0.0121094 6.93889e-18)
(-0.00810499 0.0126218 6.93889e-18)
(-0.00732812 0.0130881 6.93889e-18)
(-0.00652451 0.0135067 5.20417e-18)
(-0.00569709 0.013876 5.20417e-18)
(-0.00484888 0.0141947 5.20417e-18)
(-0.00398299 0.0144615 5.20417e-18)
(-0.00310255 0.0146756 3.46945e-18)
(-0.0022108 0.0148362 3.46945e-18)
(-0.00131098 0.0149426 3.46945e-18)
(-0.000406377 0.0149945 3.46945e-18)
(0.000499709 0.0149917 1.73472e-18)
(0.00140397 0.0149341 1.73472e-18)
(0.00230311 0.0148221 1.73472e-18)
(0.00319385 0.014656 0)
(0.00407293 0.0144365 0)
(0.00493715 0.0141642 0)
(0.00578336 0.0138403 0)
(0.00660846 0.0134658 0)
(0.00740945 0.0130422 0)
(0.0081834 0.0125711 0)
(0.00892749 0.012054 0)
(0.00963901 0.011493 0)
(0.0103154 0.0108901 0)
(0.0109541 0.0102474 0)
(0.0115528 0.00956728 0)
(0.0121094 0.00885229 0)
(0.0126218 0.00810499 0)
(0.0130881 0.00732812 0)
(0.0135067 0.00652451 0)
(0.013876 0.00569709 0)
(0.0141947 0.00484888 0)
(0.0144615 0.00398299 0)
(0.0146756 0.00310255 1.73472e-18)
(0.0148362 0.0022108 1.73472e-18)
(0.0149426 0.00131098 1.73472e-18)
(0.0149945 0.000406377 3.46945e-18)
(0.0149917 -0.000499709 3.46945e-18)
(0.0149341 -0.00140397 3.46945e-18)
(0.0148221 -0.00230311 3.46945e-18)
(0.014656 -0.00319385 5.20417e-18)
(0.0144365 -0.00407293 5.20417e-18)
(0.0141642 -0.00493715 6.93889e-18)
(0.0138403 -0.00578336 6.93889e-18)
(0.0134658 -0.00660846 8.67362e-18)
(0.0130422 -0.00740945 1.04083e-17)
(0.0125711 -0.0081834 1.04083e-17)
(0.012054 -0.00892749 1.04083e-17)
(0.011493 -0.00963901 1.04083e-17)
(0.0108901 -0.0103154 1.21431e-17)
(0.0102474 -0.0109541 1.21431e-17)
(0.00956728 -0.0115528 1.21431e-17)
(0.00885229 -0.0121094 1.38778e-17)
(0.00810499 -0.0126218 1.38778e-17)
(0.00732812 -0.0130881 1.56125e-17)
(0.00652451 -0.0135067 1.56125e-17)
(0.00569709 -0.013876 1.56125e-17)
(0.00484888 -0.0141947 1.56125e-17)
(0.00398299 -0.0144615 1.56125e-17)
(0.00310255 -0.0146756 1.73472e-17)
(0.0022108 -0.0148362 1.73472e-17)
(0.00131098 -0.0149426 1.9082e-17)
(0.000406377 -0.0149945 1.9082e-17)
(-0.000499709 -0.0149917 1.9082e-17)
(-0.00140397 -0.0149341 1.9082e-17)
(-0.00230311 -0.0148221 1.9082e-17)
(-0.00319385 -0.014656 2.08167e-17)
(-0.00407293 -0.0144365 2.08167e-17)
(-0.00493715 -0.0141642 2.08167e-17)
(-0.00578336 -0.0138403 2.08167e-17)
(-0.00660846 -0.0134658 2.25514e-17)
(-0.00740945 -0.0130422 2.25514e-17)
(-0.0081834 -0.0125711 2.25514e-17)
(-0.00892749 -0.012054 2.25514e-17)
(-0.00897715 -0.0107429 2.08167e-17)
(-0.00962767 -0.0101641 2.08167e-17)
(-0.0082919 -0.0112803 2.08167e-17)
(-0.00757457 -0.011774 2.08167e-17)
(-0.00682793 -0.0122221 2.08167e-17)
(-0.00605488 -0.0126229 2.08167e-17)
(-0.00525841 -0.0129749 2.08167e-17)
(-0.00444159 -0.0132768 2.08167e-17)
(-0.00360758 -0.0135272 1.9082e-17)
(-0.00275962 -0.0137253 1.9082e-17)
(-0.00190099 -0.0138703 1.9082e-17)
(-0.00103499 -0.0139617 1.9082e-17)
(-0.000165 -0.013999 1.9082e-17)
(0.000705634 -0.0139822 1.9082e-17)
(0.00157354 -0.0139113 1.73472e-17)
(0.00243535 -0.0137865 1.73472e-17)
(0.00328775 -0.0136085 1.56125e-17)
(0.00412742 -0.0133778 1.56125e-17)
(0.00495113 -0.0130953 1.56125e-17)
(0.00575568 -0.0127621 1.56125e-17)
(0.00653796 -0.0123796 1.38778e-17)
(0.00729495 -0.0119492 1.38778e-17)
(0.00802372 -0.0114726 1.38778e-17)
(0.00872144 -0.0109515 1.21431e-17)
(0.00938543 -0.0103881 1.21431e-17)
(0.0100131 -0.00978457 1.21431e-17)
(0.010602 -0.00914313 1.21431e-17)
(0.01115 -0.00846632 1.04083e-17)
(0.0116547 -0.00775676 1.04083e-17)
(0.0121144 -0.00701718 1.04083e-17)
(0.0125272 -0.00625046 8.67362e-18)
(0.0128916 -0.00545955 6.93889e-18)
(0.0132061 -0.00464753 6.93889e-18)
(0.0134695 -0.00381752 6.93889e-18)
(0.0136807 -0.00297274 5.20417e-18)
(0.0138391 -0.00211647 5.20417e-18)
(0.0139439 -0.001252 3.46945e-18)
(0.0139948 -0.00038269 3.46945e-18)
(0.0139915 0.0004881 3.46945e-18)
(0.0139341 0.001357 3.46945e-18)
(0.0138228 0.00222065 1.73472e-18)
(0.013658 0.00307571 1.73472e-18)
(0.0134403 0.00391888 1.73472e-18)
(0.0131707 0.00474687 1.73472e-18)
(0.0128501 0.00555651 0)
(0.0124798 0.00634465 0)
(0.0120612 0.00710824 0)
(0.011596 0.00784433 0)
(0.0110859 0.00855007 0)
(0.0105329 0.00922274 0)
(0.00993911 0.00985972 0)
(0.00930691 0.0104586 0)
(0.0086387 0.0110169 0)
(0.00793707 0.0115327 0)
(0.00720473 0.0120038 0)
(0.00644452 0.0124285 0)
(0.00565938 0.0128051 0)
(0.00485234 0.0131322 0)
(0.00402653 0.0134085 1.73472e-18)
(0.00318514 0.0136329 1.73472e-18)
(0.00233143 0.0138045 1.73472e-18)
(0.0014687 0.0139228 1.73472e-18)
(0.000600288 0.0139871 3.46945e-18)
(-0.000270448 0.0139974 3.46945e-18)
(-0.00114014 0.0139535 3.46945e-18)
(-0.00200542 0.0138556 3.46945e-18)
(-0.00286294 0.0137041 5.20417e-18)
(-0.00370938 0.0134997 5.20417e-18)
(-0.00454147 0.0132429 6.93889e-18)
(-0.005356 0.012935 6.93889e-18)
(-0.0061498 0.012577 6.93889e-18)
(-0.0069198 0.0121703 6.93889e-18)
(-0.00766304 0.0117166 6.93889e-18)
(-0.00837663 0.0112175 6.93889e-18)
(-0.00905782 0.010675 8.67362e-18)
(-0.00970396 0.0100912 1.04083e-17)
(-0.0103126 0.00946843 1.04083e-17)
(-0.0108813 0.00880899 1.04083e-17)
(-0.0114079 0.00811546 1.04083e-17)
(-0.0118903 0.00739054 1.21431e-17)
(-0.0123268 0.00663703 1.21431e-17)
(-0.0127156 0.00585784 1.38778e-17)
(-0.0130552 0.00505598 1.56125e-17)
(-0.0133442 0.00423457 1.56125e-17)
(-0.0135817 0.00339677 1.56125e-17)
(-0.0137666 0.00254583 1.56125e-17)
(-0.0138982 0.00168505 1.73472e-17)
(-0.0139761 0.00081774 1.73472e-17)
(-0.0139999 -5.27306e-05 1.9082e-17)
(-0.0139695 -0.000922997 1.9082e-17)
(-0.0138851 -0.00178969 1.9082e-17)
(-0.013747 -0.00264947 1.9082e-17)
(-0.0135557 -0.00349899 1.9082e-17)
(-0.0133119 -0.00433497 1.9082e-17)
(-0.0130167 -0.00515418 2.08167e-17)
(-0.0126711 -0.00595346 2.08167e-17)
(-0.0122765 -0.0067297 2.08167e-17)
(-0.0118343 -0.0074799 2.08167e-17)
(-0.0113464 -0.00820117 2.08167e-17)
(-0.0108146 -0.00889071 2.08167e-17)
(-0.0102409 -0.00954585 2.08167e-17)
)

// edges

205
(
(0 1)
(1 2)
(2 3)
(3 4)
(4 5)
(5 6)
(6 7)
(7 8)
(8 9)
(9 10)
(10 11)
(11 12)
(12 13)
(13 14)
(14 15)
(15 16)
(16 17)
(17 18)
(18 19)
(19 20)
(20 21)
(21 22)
(22 23)
(23 24)
(24 25)
(25 26)
(26 27)
(27 28)
(28 29)
(29 30)
(30 31)
(31 32)
(32 33)
(33 34)
(34 35)
(35 36)
(36 37)
(37 38)
(38 39)
(39 40)
(40 41)
(41 42)
(42 43)
(43 44)
(44 45)
(45 46)
(46 47)
(47 48)
(48 49)
(49 50)
(50 51)
(51 52)
(52 53)
(53 54)
(54 55)
(55 56)
(56 57)
(57 58)
(58 59)
(59 60)
(60 61)
(61 62)
(62 63)
(63 64)
(64 65)
(65 66)
(66 67)
(67 68)
(68 69)
(69 70)
(70 71)
(71 72)
(72 73)
(73 74)
(74 75)
(75 76)
(76 77)
(77 78)
(78 79)
(79 80)
(80 81)
(81 82)
(82 83)
(83 84)
(84 85)
(85 86)
(86 87)
(87 88)
(88 89)
(89 90)
(90 91)
(91 92)
(92 93)
(93 94)
(94 95)
(95 96)
(96 97)
(97 98)
(98 99)
(99 100)
(100 101)
(101 102)
(102 103)
(103 0)
(104 105)
(106 104)
(107 106)
(108 107)
(109 108)
(110 109)
(111 110)
(112 111)
(113 112)
(114 113)
(115 114)
(116 115)
(117 116)
(118 117)
(119 118)
(120 119)
(121 120)
(122 121)
(123 122)
(124 123)
(125 124)
(126 125)
(127 126)
(128 127)
(129 128)
(130 129)
(131 130)
(132 131)
(133 132)
(134 133)
(135 134)
(136 135)
(137 136)
(138 137)
(139 138)
(140 139)
(141 140)
(142 141)
(143 142)
(144 143)
(145 144)
(146 145)
(147 146)
(148 147)
(149 148)
(150 149)
(151 150)
(152 151)
(153 152)
(154 153)
(155 154)
(156 155)
(157 156)
(158 157)
(159 158)
(160 159)
(161 160)
(162 161)
(163 162)
(164 163)
(165 164)
(166 165)
(167 166)
(168 167)
(169 168)
(170 169)
(171 170)
(172 171)
(173 172)
(174 173)
(175 174)
(176 175)
(177 176)
(178 177)
(179 178)
(180 179)
(181 180)
(182 181)
(183 182)
(184 183)
(185 184)
(186 185)
(187 186)
(188 187)
(189 188)
(190 189)
(191 190)
(192 191)
(193 192)
(194 193)
(195 194)
(196 195)
(197 196)
(198 197)
(199 198)
(200 199)
(201 200)
(202 201)
(203 202)
(204 203)
(105 204)
)

// concaveStart mixedStart nonFeatureStart
0 0 0
// internalStart flatStart openStart multipleStart
205 205 205 205
// normals

410
(
(-0.665449 -0.746444 0)
(1.1549e-15 1.29547e-15 1)
(-0.709305 -0.704902 0)
(1.23102e-15 1.22337e-15 1)
(-0.75057 -0.660791 0)
(1.30359e-15 1.14766e-15 1)
(-0.789099 -0.614266 0)
(1.37146e-15 1.06759e-15 1)
(-0.824751 -0.565496 0)
(1.43434e-15 9.83468e-16 1)
(-0.857387 -0.514672 0)
(1.49201e-15 8.95626e-16 1)
(-0.886899 -0.461963 0)
(3.94296e-16 2.36405e-15 1)
(-0.913172 -0.407575 0)
(0 0 1)
(-0.936114 -0.351697 0)
(0 0 1)
(-0.955642 -0.294529 0)
(1.66624e-15 5.13536e-16 1)
(-0.971683 -0.23629 0)
(7.6314e-16 2.15588e-15 1)
(-0.984177 -0.17719 0)
(0 0 1)
(-0.993079 -0.11745 0)
(0 0 1)
(-0.998359 -0.0572675 0)
(0 0 1)
(-0.999995 0.00311232 0)
(0 0 1)
(-0.997983 0.0634819 0)
(1.12989e-15 1.84652e-15 1)
(-0.992328 0.123629 0)
(0 0 1)
(-0.983054 0.183315 0)
(1.24916e-15 1.71457e-15 1)
(-0.970195 0.242327 0)
(0 0 1)
(-0.953789 0.300477 0)
(-3.11583e-16 2.10542e-15 1)
(-0.933908 0.357514 0)
(-1.63105e-15 6.24391e-16 1)
(-0.910619 0.413248 0)
(-1.43546e-16 2.16758e-15 1)
(-0.884004 0.467479 0)
(0 0 1)
(-0.85417 0.519994 0)
(0 0 1)
(-0.82121 0.570626 0)
(1.564e-15 1.24457e-15 1)
(-0.78526 0.619166 0)
(0 0 1)
(-0.746444 0.665449 0)
(0 0 1)
(-0.704902 0.709305 0)
(4.31216e-16 2.28211e-15 1)
(-0.660791 0.75057 0)
(0 0 1)
(-0.614266 0.789099 0)
(1.71445e-15 9.14332e-16 1)
(-0.565496 0.824751 0)
(0 0 1)
(-0.514672 0.857387 0)
(0 0 1)
(-0.461963 0.886899 0)
(9.80881e-16 2.26116e-15 1)
(-0.407575 0.913172 0)
(-7.08209e-16 1.58674e-15 1)
(-0.351697 0.936114 0)
(-6.10675e-16 1.62544e-15 1)
(-0.294529 0.955642 0)
(0 0 1)
(-0.23629 0.971683 0)
(1.84284e-15 5.24195e-16 1)
(-0.17719 0.984177 0)
(-3.07816e-16 1.70973e-15 1)
(-0.11745 0.993079 0)
(0 -0 1)
(-0.0572675 0.998359 0)
(0 -0 1)
(0.00311232 0.999995 -0)
(1.91534e-15 2.61108e-16 1)
(0.0634819 0.997983 -0)
(1.1055e-16 1.73794e-15 1)
(0.123629 0.992328 -0)
(0 -0 1)
(0.183315 0.983054 -0)
(1.95767e-15 5.44812e-17 1)
(0.242327 0.970195 -0)
(4.22574e-16 1.69184e-15 1)
(0.300477 0.953789 -0)
(5.24166e-16 1.66383e-15 1)
(0.357514 0.933908 -0)
(0 0 1)
(0.413248 0.910619 -0)
(0 0 1)
(0.467479 0.884004 -0)
(0 0 1)
(0.519994 0.85417 -0)
(0 0 1)
(0.570626 0.82121 -0)
(0 0 1)
(0.619166 0.78526 -0)
(0 0 1)
(0.665449 0.746444 -0)
(0 0 1)
(0.709305 0.704902 -0)
(0 0 1)
(0.75057 0.660791 -0)
(0 0 1)
(0.789099 0.614266 -0)
(0 0 1)
(0.824751 0.565496 -0)
(0 0 1)
(0.857387 0.514672 -0)
(0 0 1)
(0.886899 0.461963 -0)
(0 0 1)
(0.913172 0.407575 -0)
(0 0 1)
(0.936114 0.351697 -0)
(1.633e-15 6.13514e-16 1)
(0.955642 0.294529 -0)
(1.66646e-15 5.13605e-16 1)
(0.971683 0.23629 -0)
(-5.16338e-17 1.95775e-15 1)
(0.984177 0.17719 -0)
(-0 0 1)
(0.993079 0.11745 -0)
(1.7294e-15 2.04534e-16 1)
(0.998359 0.0572675 -0)
(1.56981e-16 1.92667e-15 1)
(0.999995 -0.00311232 0)
(-0 0 1)
(0.997983 -0.0634819 0)
(-0 0 1)
(0.992328 -0.123629 0)
(1.72389e-15 -2.14771e-16 1)
(0.983054 -0.183315 0)
(4.23615e-16 1.86852e-15 1)
(0.970195 -0.242327 0)
(0 0 1)
(0.953789 -0.300477 0)
(2.14559e-15 1.33133e-15 1)
(0.933908 -0.357514 0)
(0 0 1)
(0.910619 -0.413248 0)
(6.2137e-16 1.82045e-15 1)
(0.884004 -0.467479 0)
(6.87415e-16 1.80221e-15 1)
(0.85417 -0.519994 0)
(0 0 1)
(0.82121 -0.570626 0)
(0 0 1)
(0.78526 -0.619166 0)
(0 0 1)
(0.746444 -0.665449 0)
(2.25538e-15 5.54175e-16 1)
(0.704902 -0.709305 0)
(0 0 1)
(0.660791 -0.75057 0)
(0 0 1)
(0.614266 -0.789099 0)
(1.15804e-15 1.62912e-15 1)
(0.565496 -0.824751 0)
(0 0 1)
(0.514672 -0.857387 0)
(1.29598e-15 1.56089e-15 1)
(0.461963 -0.886899 0)
(-8.06716e-16 1.54877e-15 1)
(0.407575 -0.913172 0)
(0 0 1)
(0.351697 -0.936114 0)
(0 0 1)
(0.294529 -0.955642 0)
(0 0 1)
(0.23629 -0.971683 0)
(1.6444e-15 1.34019e-15 1)
(0.17719 -0.984177 0)
(0 0 1)
(0.11745 -0.993079 0)
(1.7826e-15 1.22824e-15 1)
(0.0572675 -0.998359 0)
(0 0 1)
(-0.00311232 -0.999995 0)
(0 0 1)
(-0.0634819 -0.997983 0)
(0 0 1)
(-0.123629 -0.992328 0)
(0 0 1)
(-0.183315 -0.983054 0)
(2.11138e-15 8.78794e-16 1)
(-0.242327 -0.970195 0)
(4.22517e-16 1.69162e-15 1)
(-0.300477 -0.953789 0)
(0 0 1)
(-0.357514 -0.933908 0)
(0 0 1)
(-0.413248 -0.910619 0)
(2.33922e-15 5.2176e-16 1)
(-0.467479 -0.884004 0)
(8.13494e-16 1.53832e-15 1)
(-0.519994 -0.85417 0)
(9.04334e-16 1.4855e-15 1)
(-0.570626 -0.82121 0)
(9.9175e-16 1.42727e-15 1)
(-0.619166 -0.78526 0)
(1.07536e-15 1.36383e-15 1)
(1.15282e-15 1.29549e-15 1)
(0.664774 0.747044 0)
(1.06925e-15 1.3636e-15 1)
(0.617054 0.78692 -0)
(9.8169e-16 1.42642e-15 1)
(0.566931 0.823765 -0)
(8.90518e-16 1.48371e-15 1)
(0.514621 0.857418 -0)
(7.96072e-16 1.53524e-15 1)
(0.460326 0.88775 -0)
(0 0 1)
(0.40424 0.914653 -0)
(0 0 1)
(0.346601 0.938013 -0)
(2.29951e-15 7.30985e-16 1)
(0.287611 0.957747 -0)
(3.92658e-16 1.68067e-15 1)
(0.227505 0.973777 -0)
(0 0 1)
(0.166537 0.986035 -0)
(0 0 1)
(0.104904 0.994482 -0)
(0 0 1)
(0.0428808 0.99908 -0)
(-0 0 1)
(-0.0193153 0.999813 0)
(1.90085e-15 1.19813e-15 1)
(-0.0814429 0.996678 0)
(-0 0 1)
(-0.143249 0.989687 0)
(1.75931e-15 1.32025e-15 1)
(-0.204491 0.978868 0)
(-0 0 1)
(-0.264954 0.964261 0)
(-0 0 1)
(-0.324392 0.945923 0)
(-0 0 1)
(-0.38257 0.923927 0)
(1.4735e-15 1.52155e-15 1)
(-0.439275 0.898353 0)
(-8.51931e-16 1.49835e-15 1)
(-0.494272 0.869308 0)
(-0 0 1)
(-0.547361 0.836897 0)
(1.26104e-15 1.64076e-15 1)
(-0.598328 0.801251 0)
(-0 0 1)
(-0.646991 0.762498 0)
(-0 0 1)
(-0.693137 0.720806 0)
(-0 0 1)
(-0.736613 0.676314 0)
(2.32561e-15 6.80355e-16 1)
(-0.77723 0.629216 0)
(-0 0 1)
(-0.814847 0.579676 0)
(-0 0 1)
(-0.849309 0.527896 0)
(7.79186e-16 1.84298e-15 1)
(-0.880485 0.474073 0)
(7.11569e-16 1.86553e-15 1)
(-0.908253 0.41842 0)
(-0 0 1)
(-0.932511 0.361141 0)
(-0 0 1)
(-0.953159 0.30247 0)
(2.19155e-15 1.50536e-15 1)
(-0.970119 0.242628 0)
(1.70481e-15 -3.15268e-16 1)
(-0.983327 0.181845 0)
(3.02344e-16 1.97004e-15 1)
(-0.99273 0.120361 0)
(0 0 1)
(-0.998293 0.0584069 0)
(0 -0 1)
(-0.999993 -0.0037668 0)
(1.72527e-15 1.13993e-16 1)
(-0.997824 -0.0659287 0)
(1.95511e-17 2.01111e-15 1)
(-0.991795 -0.127836 0)
(0 -0 1)
(-0.981929 -0.189252 0)
(1.67162e-15 4.31467e-16 1)
(-0.968266 -0.249922 0)
(1.64088e-15 5.34356e-16 1)
(-0.950852 -0.309647 0)
(-2.78499e-16 2.03233e-15 1)
(-0.929768 -0.368147 0)
(0 -0 1)
(-0.905074 -0.425254 0)
(0 -0 1)
(-0.876892 -0.480688 0)
(0 -0 1)
(-0.845307 -0.53428 0)
(0 -0 1)
(-0.810458 -0.585797 0)
(0 -0 1)
(-0.77247 -0.635051 0)
(0 -0 1)
(-0.731495 -0.681847 0)
(0 -0 1)
(-0.68769 -0.726004 0)
(0 -0 1)
(-0.641227 -0.767351 0)
(0 -0 1)
(-0.592276 -0.805735 0)
(0 -0 1)
(-0.541036 -0.841 0)
(0 -0 1)
(-0.487714 -0.873004 0)
(0 -0 1)
(-0.43249 -0.901639 0)
(0 -0 1)
(-0.375598 -0.926783 0)
(2.04442e-15 -1.68009e-16 1)
(-0.317261 -0.948338 0)
(4.44684e-16 1.66742e-15 1)
(-0.257684 -0.966229 0)
(3.40309e-16 1.69254e-15 1)
(-0.197119 -0.98038 0)
(0 0 1)
(-0.135784 -0.990739 0)
(2.0071e-15 1.28453e-16 1)
(-0.0739211 -0.997264 0)
(2.03912e-17 1.72891e-15 1)
(-0.0117935 -0.99993 0)
(0 0 1)
(0.0504016 -0.998729 0)
(0 0 1)
(0.112403 -0.993663 0)
(1.95078e-15 4.08604e-16 1)
(0.173945 -0.984755 0)
(-4.07149e-16 1.68523e-15 1)
(0.234842 -0.972033 0)
(1.38444e-15 2.26986e-15 1)
(0.294822 -0.955552 0)
(-6.1296e-16 1.62127e-15 1)
(0.353643 -0.93538 0)
(-7.12071e-16 1.57885e-15 1)
(0.411128 -0.911578 0)
(0 0 1)
(0.466998 -0.884258 0)
(0 0 1)
(0.521064 -0.853518 0)
(0 0 1)
(0.573121 -0.819471 0)
(1.74163e-15 1.01084e-15 1)
(0.622959 -0.782254 0)
(5.53375e-16 2.35905e-15 1)
(0.670394 -0.742005 0)
(0 0 1)
(0.715216 -0.698904 0)
(0 0 1)
(0.757288 -0.653081 0)
(0 0 1)
(0.796427 -0.604735 0)
(1.57004e-15 1.34804e-15 1)
(0.832479 -0.554056 0)
(0 0 1)
(0.865319 -0.501221 0)
(-5.65494e-17 2.25454e-15 1)
(0.894802 -0.446464 0)
(-1.47402e-16 2.22581e-15 1)
(0.920829 -0.389966 0)
(-1.62544e-15 5.72041e-16 1)
(0.943289 -0.331971 0)
(0 0 1)
(0.962104 -0.272681 0)
(0 0 1)
(0.977197 -0.212335 0)
(1.22303e-15 1.82823e-15 1)
(0.988508 -0.151172 0)
(0 0 1)
(0.995993 -0.0894354 0)
(1.09342e-15 1.96297e-15 1)
(0.999626 -0.0273313 0)
(0 0 1)
(0.999392 0.0348649 -0)
(0 0 1)
(0.995292 0.096922 -0)
(0 0 1)
(0.987339 0.158625 -0)
(0 0 1)
(0.975568 0.219696 -0)
(1.65693e-15 4.83115e-16 1)
(0.960024 0.279917 -0)
(6.05364e-16 2.33572e-15 1)
(0.940766 0.339058 -0)
(0 0 1)
(0.917862 0.396899 -0)
(0 0 1)
(0.891417 0.453185 -0)
(1.48989e-15 8.7806e-16 1)
(0.861515 0.507731 -0)
(1.4333e-15 9.69592e-16 1)
(0.828281 0.560313 -0)
(1.37116e-15 1.05751e-15 1)
(0.791849 0.610718 -0)
(1.30369e-15 1.14153e-15 1)
(0.752348 0.658766 0)
(1.23114e-15 1.22131e-15 1)
(0.709937 0.704265 0)
)

// normal volume types

410
(
0
0
0
0
0
0
0
0
0
0
0
0
0
0
0
0
0
0
0
0
0
0
0
0
0
0
0
0
0
0
0
0
0
0
0
0
0
0
0
0
0
0
0
0
0
0
0
0
0
0
0
0
0
0
0
0
0
0
0
0
0
0
0
0
0
0
0
0
0
0
0
0
0
0
0
0
0
0
0
0
0
0
0
0
0
0
0
0
0
0
0
0
0
0
0
0
0
0
0
0
0
0
0
0
0
0
0
0
0
0
0
0
0
0
0
0
0
0
0
0
0
0
0
0
0
0
0
0
0
0
0
0
0
0
0
0
0
0
0
0
0
0
0
0
0
0
0
0
0
0
0
0
0
0
0
0
0
0
0
0
0
0
0
0
0
0
0
0
0
0
0
0
0
0
0
0
0
0
0
0
0
0
0
0
0
0
0
0
0
0
0
0
0
0
0
0
0
0
0
0
0
0
0
0
0
0
0
0
0
0
0
0
0
0
0
0
0
0
0
0
0
0
0
0
0
0
0
0
0
0
0
0
0
0
0
0
0
0
0
0
0
0
0
0
0
0
0
0
0
0
0
0
0
0
0
0
0
0
0
0
0
0
0
0
0
0
0
0
0
0
0
0
0
0
0
0
0
0
0
0
0
0
0
0
0
0
0
0
0
0
0
0
0
0
0
0
0
0
0
0
0
0
0
0
0
0
0
0
0
0
0
0
0
0
0
0
0
0
0
0
0
0
0
0
0
0
0
0
0
0
0
0
0
0
0
0
0
0
0
0
0
0
0
0
0
0
0
0
0
0
0
0
0
0
0
0
0
0
0
0
0
0
0
0
0
0
0
0
0
0
0
0
0
0
0
0
0
0
0
0
0
0
0
0
0
0
0
0
0
0
0
0
0
0
0
0
0
0
0
0
0
0
0
0
0
0
0
0
0
0
)

// normalDirections

205
(
2(1 -1)
2(1 -1)
2(1 -1)
2(1 -1)
2(1 -1)
2(1 -1)
2(1 -1)
2(1 -1)
2(1 -1)
2(1 -1)
2(1 -1)
2(1 -1)
2(1 -1)
2(1 -1)
2(1 -1)
2(1 -1)
2(1 -1)
2(1 -1)
2(1 -1)
2(1 -1)
2(1 -1)
2(1 -1)
2(1 -1)
2(1 -1)
2(1 -1)
2(1 -1)
2(1 -1)
2(1 -1)
2(1 -1)
2(1 -1)
2(1 -1)
2(1 -1)
2(1 -1)
2(1 -1)
2(1 -1)
2(1 -1)
2(1 -1)
2(1 -1)
2(1 -1)
2(1 -1)
2(1 -1)
2(1 -1)
2(1 -1)
2(1 -1)
2(1 -1)
2(1 -1)
2(1 -1)
2(1 -1)
2(1 -1)
2(1 -1)
2(1 -1)
2(1 -1)
2(1 -1)
2(1 -1)
2(1 -1)
2(1 -1)
2(1 -1)
2(1 -1)
2(1 -1)
2(1 -1)
2(1 -1)
2(1 -1)
2(1 -1)
2(1 -1)
2(1 -1)
2(1 -1)
2(1 -1)
2(1 -1)
2(1 -1)
2(1 -1)
2(1 -1)
2(1 -1)
2(1 -1)
2(1 -1)
2(1 -1)
2(1 -1)
2(1 -1)
2(1 -1)
2(1 -1)
2(1 -1)
2(1 -1)
2(1 -1)
2(1 -1)
2(1 -1)
2(1 -1)
2(1 -1)
2(1 -1)
2(1 -1)
2(1 -1)
2(1 -1)
2(1 -1)
2(1 -1)
2(1 -1)
2(1 -1)
2(1 -1)
2(1 -1)
2(1 -1)
2(1 -1)
2(1 -1)
2(1 -1)
2(1 -1)
2(1 -1)
2(1 -1)
2(1 -1)
2(1 -1)
2(1 -1)
2(1 -1)
2(1 -1)
2(1 -1)
2(1 -1)
2(1 -1)
2(1 -1)
2(1 -1)
2(1 -1)
2(1 -1)
2(1 -1)
2(1 -1)
2(1 -1)
2(1 -1)
2(1 -1)
2(1 -1)
2(1 -1)
2(1 -1)
2(1 -1)
2(1 -1)
2(1 -1)
2(1 -1)
2(1 -1)
2(1 -1)
2(1 -1)
2(1 -1)
2(1 -1)
2(1 -1)
2(1 -1)
2(1 -1)
2(1 -1)
2(1 -1)
2(1 -1)
2(1 -1)
2(1 -1)
2(1 -1)
2(1 -1)
2(1 -1)
2(1 -1)
2(1 -1)
2(1 -1)
2(1 -1)
2(1 -1)
2(1 -1)
2(1 -1)
2(1 -1)
2(1 -1)
2(1 -1)
2(1 -1)
2(1 -1)
2(1 -1)
2(1 -1)
2(1 -1)
2(1 -1)
2(1 -1)
2(1 -1)
2(1 -1)
2(1 -1)
2(1 -1)
2(1 -1)
2(1 -1)
2(1 -1)
2(1 -1)
2(1 -1)
2(1 -1)
2(1 -1)
2(1 -1)
2(1 -1)
2(1 -1)
2(1 -1)
2(1 -1)
2(1 -1)
2(1 -1)
2(1 -1)
2(1 -1)
2(1 -1)
2(1 -1)
2(1 -1)
2(1 -1)
2(1 -1)
2(1 -1)
2(1 -1)
2(1 -1)
2(1 -1)
2(1 -1)
2(1 -1)
2(1 -1)
2(1 -1)
2(1 -1)
2(1 -1)
2(1 -1)
2(1 -1)
2(1 -1)
2(1 -1)
2(1 -1)
2(1 -1)
2(1 -1)
2(1 -1)
2(1 -1)
2(1 -1)
)

// edgeNormals

205
(
2(0 1)
2(2 3)
2(4 5)
2(6 7)
2(8 9)
2(10 11)
2(12 13)
2(14 15)
2(16 17)
2(18 19)
2(20 21)
2(22 23)
2(24 25)
2(26 27)
2(28 29)
2(30 31)
2(32 33)
2(34 35)
2(36 37)
2(38 39)
2(40 41)
2(42 43)
2(44 45)
2(46 47)
2(48 49)
2(50 51)
2(52 53)
2(54 55)
2(56 57)
2(58 59)
2(60 61)
2(62 63)
2(64 65)
2(66 67)
2(68 69)
2(70 71)
2(72 73)
2(74 75)
2(76 77)
2(78 79)
2(80 81)
2(82 83)
2(84 85)
2(86 87)
2(88 89)
2(90 91)
2(92 93)
2(94 95)
2(96 97)
2(98 99)
2(100 101)
2(102 103)
2(104 105)
2(106 107)
2(108 109)
2(110 111)
2(112 113)
2(114 115)
2(116 117)
2(118 119)
2(120 121)
2(122 123)
2(124 125)
2(126 127)
2(128 129)
2(130 131)
2(132 133)
2(134 135)
2(136 137)
2(138 139)
2(140 141)
2(142 143)
2(144 145)
2(146 147)
2(148 149)
2(150 151)
2(152 153)
2(154 155)
2(156 157)
2(158 159)
2(160 161)
2(162 163)
2(164 165)
2(166 167)
2(168 169)
2(170 171)
2(172 173)
2(174 175)
2(176 177)
2(178 179)
2(180 181)
2(182 183)
2(184 185)
2(186 187)
2(188 189)
2(190 191)
2(192 193)
2(194 195)
2(196 197)
2(198 199)
2(200 201)
2(202 203)
2(204 205)
2(206 207)
2(208 209)
2(210 211)
2(212 213)
2(214 215)
2(216 217)
2(218 219)
2(220 221)
2(222 223)
2(224 225)
2(226 227)
2(228 229)
2(230 231)
2(232 233)
2(234 235)
2(236 237)
2(238 239)
2(240 241)
2(242 243)
2(244 245)
2(246 247)
2(248 249)
2(250 251)
2(252 253)
2(254 255)
2(256 257)
2(258 259)
2(260 261)
2(262 263)
2(264 265)
2(266 267)
2(268 269)
2(270 271)
2(272 273)
2(274 275)
2(276 277)
2(278 279)
2(280 281)
2(282 283)
2(284 285)
2(286 287)
2(288 289)
2(290 291)
2(292 293)
2(294 295)
2(296 297)
2(298 299)
2(300 301)
2(302 303)
2(304 305)
2(306 307)
2(308 309)
2(310 311)
2(312 313)
2(314 315)
2(316 317)
2(318 319)
2(320 321)
2(322 323)
2(324 325)
2(326 327)
2(328 329)
2(330 331)
2(332 333)
2(334 335)
2(336 337)
2(338 339)
2(340 341)
2(342 343)
2(344 345)
2(346 347)
2(348 349)
2(350 351)
2(352 353)
2(354 355)
2(356 357)
2(358 359)
2(360 361)
2(362 363)
2(364 365)
2(366 367)
2(368 369)
2(370 371)
2(372 373)
2(374 375)
2(376 377)
2(378 379)
2(380 381)
2(382 383)
2(384 385)
2(386 387)
2(388 389)
2(390 391)
2(392 393)
2(394 395)
2(396 397)
2(398 399)
2(400 401)
2(402 403)
2(404 405)
2(406 407)
2(408 409)
)

// featurePointNormals
0()
// featurePointEdges
0()
// regionEdges
0()


// ************************************************************************* //
