/*--------------------------------*- C++ -*----------------------------------*\
  =========                 |
  \\      /  F ield         | OpenFOAM: The Open Source CFD Toolbox
   \\    /   O peration     | Website:  https://openfoam.org
    \\  /    A nd           | Version:  8
     \\/     M anipulation  |
\*---------------------------------------------------------------------------*/
FoamFile
{
    version     2.0;
    format      ascii;
    class       extendedFeatureEdgeMesh;
    location    "constant/extendedFeatureEdgeMesh";
    object      RF.extendedFeatureEdgeMesh;
}
// * * * * * * * * * * * * * * * * * * * * * * * * * * * * * * * * * * * * * //

// points

200
(
(-0.00444355 -0.00665243 0.00591083)
(-0.0048525 -0.00636029 0.00591083)
(-0.0048525 -0.00636029 -0.00408917)
(-0.00444355 -0.00665243 -0.00408917)
(-0.00401708 -0.00691832 0.00591083)
(-0.00401708 -0.00691832 -0.00408917)
(-0.00357474 -0.0071569 0.00591083)
(-0.00357474 -0.0071569 -0.00408917)
(-0.00311831 -0.00736724 0.00591083)
(-0.00311831 -0.00736724 -0.00408917)
(-0.00264956 -0.0075485 0.00591083)
(-0.00264956 -0.0075485 -0.00408917)
(-0.00217036 -0.00769997 0.00591083)
(-0.00217036 -0.00769997 -0.00408917)
(-0.00168259 -0.00782106 0.00591083)
(-0.00168259 -0.00782106 -0.00408917)
(-0.00118818 -0.00791127 0.00591083)
(-0.00118818 -0.00791127 -0.00408917)
(-0.000689083 -0.00797027 0.00591083)
(-0.000689083 -0.00797027 -0.00408917)
(-0.000187266 -0.00799781 0.00591083)
(-0.000187266 -0.00799781 -0.00408917)
(0.00031529 -0.00799378 0.00591083)
(0.00031529 -0.00799378 -0.00408917)
(0.000816602 -0.00795821 0.00591083)
(0.000816602 -0.00795821 -0.00408917)
(0.00131469 -0.00789123 0.00591083)
(0.00131469 -0.00789123 -0.00408917)
(0.00180759 -0.00779311 0.00591083)
(0.00180759 -0.00779311 -0.00408917)
(0.00229336 -0.00766424 0.00591083)
(0.00229336 -0.00766424 -0.00408917)
(0.00277007 -0.00750511 0.00591083)
(0.00277007 -0.00750511 -0.00408917)
(0.00323586 -0.00731637 0.00591083)
(0.00323586 -0.00731637 -0.00408917)
(0.00368887 -0.00709875 0.00591083)
(0.00368887 -0.00709875 -0.00408917)
(0.00412733 -0.00685311 0.00591083)
(0.00412733 -0.00685311 -0.00408917)
(0.00454949 -0.00658044 0.00591083)
(0.00454949 -0.00658044 -0.00408917)
(0.0049537 -0.00628179 0.00591083)
(0.0049537 -0.00628179 -0.00408917)
(0.00533837 -0.00595834 0.00591083)
(0.00533837 -0.00595834 -0.00408917)
(0.00570196 -0.00561139 0.00591083)
(0.00570196 -0.00561139 -0.00408917)
(0.00604305 -0.00524228 0.00591083)
(0.00604305 -0.00524228 -0.00408917)
(0.00636029 -0.0048525 0.00591083)
(0.00636029 -0.0048525 -0.00408917)
(0.00665243 -0.00444355 0.00591083)
(0.00665243 -0.00444355 -0.00408917)
(0.00691832 -0.00401708 0.00591083)
(0.00691832 -0.00401708 -0.00408917)
(0.0071569 -0.00357474 0.00591083)
(0.0071569 -0.00357474 -0.00408917)
(0.00736724 -0.00311831 0.00591083)
(0.00736724 -0.00311831 -0.00408917)
(0.0075485 -0.00264956 0.00591083)
(0.0075485 -0.00264956 -0.00408917)
(0.00769997 -0.00217036 0.00591083)
(0.00769997 -0.00217036 -0.00408917)
(0.00782106 -0.00168259 0.00591083)
(0.00782106 -0.00168259 -0.00408917)
(0.00791127 -0.00118818 0.00591083)
(0.00791127 -0.00118818 -0.00408917)
(0.00797027 -0.000689083 0.00591083)
(0.00797027 -0.000689083 -0.00408917)
(0.00799781 -0.000187266 0.00591083)
(0.00799781 -0.000187266 -0.00408917)
(0.00799378 0.00031529 0.00591083)
(0.00799378 0.00031529 -0.00408917)
(0.00795821 0.000816602 0.00591083)
(0.00795821 0.000816602 -0.00408917)
(0.00789123 0.00131469 0.00591083)
(0.00789123 0.00131469 -0.00408917)
(0.00779311 0.00180759 0.00591083)
(0.00779311 0.00180759 -0.00408917)
(0.00766424 0.00229336 0.00591083)
(0.00766424 0.00229336 -0.00408917)
(0.00750511 0.00277007 0.00591083)
(0.00750511 0.00277007 -0.00408917)
(0.00731637 0.00323586 0.00591083)
(0.00731637 0.00323586 -0.00408917)
(0.00709875 0.00368887 0.00591083)
(0.00709875 0.00368887 -0.00408917)
(0.00685311 0.00412733 0.00591083)
(0.00685311 0.00412733 -0.00408917)
(0.00658044 0.00454949 0.00591083)
(0.00658044 0.00454949 -0.00408917)
(0.00628179 0.0049537 0.00591083)
(0.00628179 0.0049537 -0.00408917)
(0.00595834 0.00533837 0.00591083)
(0.00595834 0.00533837 -0.00408917)
(0.00561139 0.00570196 0.00591083)
(0.00561139 0.00570196 -0.00408917)
(0.00524228 0.00604305 0.00591083)
(0.00524228 0.00604305 -0.00408917)
(0.0048525 0.00636029 0.00591083)
(0.0048525 0.00636029 -0.00408917)
(0.00444355 0.00665243 0.00591083)
(0.00444355 0.00665243 -0.00408917)
(0.00401708 0.00691832 0.00591083)
(0.00401708 0.00691832 -0.00408917)
(0.00357474 0.0071569 0.00591083)
(0.00357474 0.0071569 -0.00408917)
(0.00311831 0.00736724 0.00591083)
(0.00311831 0.00736724 -0.00408917)
(0.00264956 0.0075485 0.00591083)
(0.00264956 0.0075485 -0.00408917)
(0.00217036 0.00769997 0.00591083)
(0.00217036 0.00769997 -0.00408917)
(0.00168259 0.00782106 0.00591083)
(0.00168259 0.00782106 -0.00408917)
(0.00118818 0.00791127 0.00591083)
(0.00118818 0.00791127 -0.00408917)
(0.000689083 0.00797027 0.00591083)
(0.000689083 0.00797027 -0.00408917)
(0.000187266 0.00799781 0.00591083)
(0.000187266 0.00799781 -0.00408917)
(-0.00031529 0.00799378 0.00591083)
(-0.00031529 0.00799378 -0.00408917)
(-0.000816602 0.00795821 0.00591083)
(-0.000816602 0.00795821 -0.00408917)
(-0.00131469 0.00789123 0.00591083)
(-0.00131469 0.00789123 -0.00408917)
(-0.00180759 0.00779311 0.00591083)
(-0.00180759 0.00779311 -0.00408917)
(-0.00229336 0.00766424 0.00591083)
(-0.00229336 0.00766424 -0.00408917)
(-0.00277007 0.00750511 0.00591083)
(-0.00277007 0.00750511 -0.00408917)
(-0.00323586 0.00731637 0.00591083)
(-0.00323586 0.00731637 -0.00408917)
(-0.00368887 0.00709875 0.00591083)
(-0.00368887 0.00709875 -0.00408917)
(-0.00412733 0.00685311 0.00591083)
(-0.00412733 0.00685311 -0.00408917)
(-0.00454949 0.00658044 0.00591083)
(-0.00454949 0.00658044 -0.00408917)
(-0.0049537 0.00628179 0.00591083)
(-0.0049537 0.00628179 -0.00408917)
(-0.00533837 0.00595834 0.00591083)
(-0.00533837 0.00595834 -0.00408917)
(-0.00570196 0.00561139 0.00591083)
(-0.00570196 0.00561139 -0.00408917)
(-0.00604305 0.00524228 0.00591083)
(-0.00604305 0.00524228 -0.00408917)
(-0.00636029 0.0048525 0.00591083)
(-0.00636029 0.0048525 -0.00408917)
(-0.00665243 0.00444355 0.00591083)
(-0.00665243 0.00444355 -0.00408917)
(-0.00691832 0.00401708 0.00591083)
(-0.00691832 0.00401708 -0.00408917)
(-0.0071569 0.00357474 0.00591083)
(-0.0071569 0.00357474 -0.00408917)
(-0.00736724 0.00311831 0.00591083)
(-0.00736724 0.00311831 -0.00408917)
(-0.0075485 0.00264956 0.00591083)
(-0.0075485 0.00264956 -0.00408917)
(-0.00769997 0.00217036 0.00591083)
(-0.00769997 0.00217036 -0.00408917)
(-0.00782106 0.00168259 0.00591083)
(-0.00782106 0.00168259 -0.00408917)
(-0.00791127 0.00118818 0.00591083)
(-0.00791127 0.00118818 -0.00408917)
(-0.00797027 0.000689083 0.00591083)
(-0.00797027 0.000689083 -0.00408917)
(-0.00799781 0.000187266 0.00591083)
(-0.00799781 0.000187266 -0.00408917)
(-0.00799378 -0.00031529 0.00591083)
(-0.00799378 -0.00031529 -0.00408917)
(-0.00795821 -0.000816602 0.00591083)
(-0.00795821 -0.000816602 -0.00408917)
(-0.00789123 -0.00131469 0.00591083)
(-0.00789123 -0.00131469 -0.00408917)
(-0.00779311 -0.00180759 0.00591083)
(-0.00779311 -0.00180759 -0.00408917)
(-0.00766424 -0.00229336 0.00591083)
(-0.00766424 -0.00229336 -0.00408917)
(-0.00750511 -0.00277007 0.00591083)
(-0.00750511 -0.00277007 -0.00408917)
(-0.00731637 -0.00323586 0.00591083)
(-0.00731637 -0.00323586 -0.00408917)
(-0.00709875 -0.00368887 0.00591083)
(-0.00709875 -0.00368887 -0.00408917)
(-0.00685311 -0.00412733 0.00591083)
(-0.00685311 -0.00412733 -0.00408917)
(-0.00658044 -0.00454949 0.00591083)
(-0.00658044 -0.00454949 -0.00408917)
(-0.00628179 -0.0049537 0.00591083)
(-0.00628179 -0.0049537 -0.00408917)
(-0.00595834 -0.00533837 0.00591083)
(-0.00595834 -0.00533837 -0.00408917)
(-0.00561139 -0.00570196 0.00591083)
(-0.00561139 -0.00570196 -0.00408917)
(-0.00524228 -0.00604305 0.00591083)
(-0.00524228 -0.00604305 -0.00408917)
)

// edges

200
(
(0 1)
(2 3)
(4 0)
(3 5)
(6 4)
(5 7)
(8 6)
(7 9)
(10 8)
(9 11)
(12 10)
(11 13)
(14 12)
(13 15)
(16 14)
(15 17)
(18 16)
(17 19)
(20 18)
(19 21)
(22 20)
(21 23)
(24 22)
(23 25)
(26 24)
(25 27)
(28 26)
(27 29)
(30 28)
(29 31)
(32 30)
(31 33)
(34 32)
(33 35)
(36 34)
(35 37)
(38 36)
(37 39)
(40 38)
(39 41)
(42 40)
(41 43)
(44 42)
(43 45)
(46 44)
(45 47)
(48 46)
(47 49)
(50 48)
(49 51)
(52 50)
(51 53)
(54 52)
(53 55)
(56 54)
(55 57)
(58 56)
(57 59)
(60 58)
(59 61)
(62 60)
(61 63)
(64 62)
(63 65)
(66 64)
(65 67)
(68 66)
(67 69)
(70 68)
(69 71)
(72 70)
(71 73)
(74 72)
(73 75)
(76 74)
(75 77)
(78 76)
(77 79)
(80 78)
(79 81)
(82 80)
(81 83)
(84 82)
(83 85)
(86 84)
(85 87)
(88 86)
(87 89)
(90 88)
(89 91)
(92 90)
(91 93)
(94 92)
(93 95)
(96 94)
(95 97)
(98 96)
(97 99)
(100 98)
(99 101)
(102 100)
(101 103)
(104 102)
(103 105)
(106 104)
(105 107)
(108 106)
(107 109)
(110 108)
(109 111)
(112 110)
(111 113)
(114 112)
(113 115)
(116 114)
(115 117)
(118 116)
(117 119)
(120 118)
(119 121)
(122 120)
(121 123)
(124 122)
(123 125)
(126 124)
(125 127)
(128 126)
(127 129)
(130 128)
(129 131)
(132 130)
(131 133)
(134 132)
(133 135)
(136 134)
(135 137)
(138 136)
(137 139)
(140 138)
(139 141)
(142 140)
(141 143)
(144 142)
(143 145)
(146 144)
(145 147)
(148 146)
(147 149)
(150 148)
(149 151)
(152 150)
(151 153)
(154 152)
(153 155)
(156 154)
(155 157)
(158 156)
(157 159)
(160 158)
(159 161)
(162 160)
(161 163)
(164 162)
(163 165)
(166 164)
(165 167)
(168 166)
(167 169)
(170 168)
(169 171)
(172 170)
(171 173)
(174 172)
(173 175)
(176 174)
(175 177)
(178 176)
(177 179)
(180 178)
(179 181)
(182 180)
(181 183)
(184 182)
(183 185)
(186 184)
(185 187)
(188 186)
(187 189)
(190 188)
(189 191)
(192 190)
(191 193)
(194 192)
(193 195)
(196 194)
(195 197)
(198 196)
(197 199)
(1 198)
(199 2)
)

// concaveStart mixedStart nonFeatureStart
0 0 0
// internalStart flatStart openStart multipleStart
200 200 200 200
// normals

396
(
(-0.58129 -0.813696 -0)
(-0 -0 1)
(-0.58129 -0.813696 -0)
(0 0 -1)
(-0.529051 -0.84859 -0)
(-0.529051 -0.84859 -0)
(-0.474722 -0.880136 -0)
(0 0 1)
(-0.474722 -0.880136 -0)
(0 0 -1)
(-0.418523 -0.908206 -0)
(0 0 1)
(-0.418523 -0.908206 -0)
(0 0 -1)
(-0.360668 -0.932694 -0)
(0 0 1)
(-0.360668 -0.932694 -0)
(0 0 -1)
(-0.301394 -0.9535 -0)
(0 0 1)
(-0.301394 -0.9535 -0)
(0 0 -1)
(-0.240929 -0.970543 -0)
(0 0 1)
(-0.240929 -0.970543 -0)
(0 0 -1)
(-0.179511 -0.983756 -0)
(0 0 1)
(-0.179511 -0.983756 -0)
(0 0 -1)
(-0.117387 -0.993086 -0)
(0 0 1)
(-0.117387 -0.993086 -0)
(0 0 -1)
(-0.0547984 -0.998497 -0)
(0 0 1)
(-0.0547984 -0.998497 -0)
(0 0 -1)
(0.00800544 -0.999968 0)
(0 0 1)
(0.00800544 -0.999968 0)
(0 0 -1)
(0.0707796 -0.997492 0)
(0 0 1)
(0.0707796 -0.997492 0)
(0 0 -1)
(0.13327 -0.99108 0)
(0 0 1)
(0.13327 -0.99108 0)
(0 0 -1)
(0.195239 -0.980756 0)
(0 0 1)
(0.195239 -0.980756 0)
(0 0 -1)
(0.256435 -0.966561 0)
(0 0 1)
(0.256435 -0.966561 0)
(0 0 -1)
(0.316621 -0.948552 0)
(0 0 1)
(0.316621 -0.948552 0)
(0 0 -1)
(0.375556 -0.9268 0)
(0 0 1)
(0.375556 -0.9268 0)
(0 0 -1)
(0.43301 -0.901389 0)
(0 0 1)
(0.43301 -0.901389 0)
(0 0 -1)
(0.488752 -0.872423 0)
(0 0 1)
(0.488752 -0.872423 0)
(0 0 -1)
(0.542568 -0.840012 0)
(0 0 1)
(0.542568 -0.840012 0)
(0 0 -1)
(0.594243 -0.804286 0)
(0 0 1)
(0.594243 -0.804286 0)
(0 0 -1)
(0.643573 -0.765385 0)
(0 0 1)
(0.643573 -0.765385 0)
(0 0 -1)
(0.69036 -0.723466 0)
(0 0 1)
(0.69036 -0.723466 0)
(0 0 -1)
(0.734426 -0.678688 0)
(0 0 1)
(0.734426 -0.678688 0)
(0 0 -1)
(0.775591 -0.631236 0)
(0 0 1)
(0.775591 -0.631236 0)
(0 0 -1)
(0.813696 -0.58129 0)
(0 0 1)
(0.813696 -0.58129 0)
(0 0 -1)
(0.84859 -0.529051 0)
(0 0 1)
(0.84859 -0.529051 0)
(0 0 -1)
(0.880136 -0.474722 0)
(0 0 1)
(0.880136 -0.474722 0)
(0 0 -1)
(0.908206 -0.418523 0)
(0 0 1)
(0.908206 -0.418523 0)
(0 0 -1)
(0.932694 -0.360668 0)
(0 0 1)
(0.932694 -0.360668 0)
(0 0 -1)
(0.9535 -0.301394 0)
(0 0 1)
(0.9535 -0.301394 0)
(0 0 -1)
(0.970543 -0.240929 0)
(0 0 1)
(0.970543 -0.240929 0)
(0 0 -1)
(0.983756 -0.179511 0)
(0 0 1)
(0.983756 -0.179511 0)
(0 0 -1)
(0.993086 -0.117387 0)
(0 0 1)
(0.993086 -0.117387 0)
(0 0 -1)
(0.998497 -0.0547984 0)
(0 0 1)
(0.998497 -0.0547984 0)
(0 0 -1)
(0.999968 0.00800544 0)
(0 0 1)
(0.999968 0.00800544 0)
(0 0 -1)
(0.997492 0.0707796 0)
(0 0 1)
(0.997492 0.0707796 0)
(0 0 -1)
(0.99108 0.13327 0)
(0 0 1)
(0.99108 0.13327 0)
(0 0 -1)
(0.980756 0.195239 0)
(0 0 1)
(0.980756 0.195239 0)
(0 0 -1)
(0.966561 0.256435 0)
(0 0 1)
(0.966561 0.256435 0)
(0 0 -1)
(0.948552 0.316621 0)
(0 0 1)
(0.948552 0.316621 0)
(0 0 -1)
(0.9268 0.375556 0)
(0 0 1)
(0.9268 0.375556 0)
(0 0 -1)
(0.901389 0.43301 0)
(0 0 1)
(0.901389 0.43301 0)
(0 0 -1)
(0.872423 0.488752 0)
(0 0 1)
(0.872423 0.488752 0)
(0 0 -1)
(0.840012 0.542568 0)
(0 0 1)
(0.840012 0.542568 0)
(0 0 -1)
(0.804286 0.594243 0)
(0 0 1)
(0.804286 0.594243 0)
(0 0 -1)
(0.765385 0.643573 0)
(0 0 1)
(0.765385 0.643573 0)
(0 0 -1)
(0.723466 0.69036 0)
(0 0 1)
(0.723466 0.69036 0)
(0 0 -1)
(0.678688 0.734426 0)
(0 0 1)
(0.678688 0.734426 0)
(0 0 -1)
(0.631236 0.775591 0)
(0 0 1)
(0.631236 0.775591 0)
(0 0 -1)
(0.58129 0.813696 0)
(0 0 1)
(0.58129 0.813696 0)
(0 0 -1)
(0.529051 0.84859 0)
(0.529051 0.84859 0)
(0.474722 0.880136 0)
(0 0 1)
(0.474722 0.880136 0)
(0 0 -1)
(0.418523 0.908206 0)
(0 0 1)
(0.418523 0.908206 0)
(0 0 -1)
(0.360668 0.932694 0)
(0 0 1)
(0.360668 0.932694 0)
(0 0 -1)
(0.301394 0.9535 0)
(0 0 1)
(0.301394 0.9535 0)
(0 0 -1)
(0.240929 0.970543 0)
(0 0 1)
(0.240929 0.970543 0)
(0 0 -1)
(0.179511 0.983756 0)
(0 0 1)
(0.179511 0.983756 0)
(0 0 -1)
(0.117387 0.993086 0)
(0 0 1)
(0.117387 0.993086 0)
(0 0 -1)
(0.0547984 0.998497 0)
(0 0 1)
(0.0547984 0.998497 0)
(0 0 -1)
(-0.00800544 0.999968 0)
(-0 0 1)
(-0.00800544 0.999968 0)
(0 0 -1)
(-0.0707796 0.997492 0)
(-0 0 1)
(-0.0707796 0.997492 0)
(0 0 -1)
(-0.13327 0.99108 0)
(-0 0 1)
(-0.13327 0.99108 0)
(0 0 -1)
(-0.195239 0.980756 0)
(-0 0 1)
(-0.195239 0.980756 0)
(0 0 -1)
(-0.256435 0.966561 0)
(-0 0 1)
(-0.256435 0.966561 0)
(0 0 -1)
(-0.316621 0.948552 0)
(-0 0 1)
(-0.316621 0.948552 0)
(0 0 -1)
(-0.375556 0.9268 0)
(-0 0 1)
(-0.375556 0.9268 0)
(0 0 -1)
(-0.43301 0.901389 0)
(-0 0 1)
(-0.43301 0.901389 0)
(0 0 -1)
(-0.488752 0.872423 0)
(-0 0 1)
(-0.488752 0.872423 0)
(0 0 -1)
(-0.542568 0.840012 0)
(-0 0 1)
(-0.542568 0.840012 0)
(0 0 -1)
(-0.594243 0.804286 0)
(-0 0 1)
(-0.594243 0.804286 0)
(0 0 -1)
(-0.643573 0.765385 0)
(-0 0 1)
(-0.643573 0.765385 0)
(0 0 -1)
(-0.69036 0.723466 0)
(-0 0 1)
(-0.69036 0.723466 0)
(0 0 -1)
(-0.734426 0.678688 0)
(-0 0 1)
(-0.734426 0.678688 0)
(0 0 -1)
(-0.775591 0.631236 0)
(-0 0 1)
(-0.775591 0.631236 0)
(0 0 -1)
(-0.813696 0.58129 0)
(-0 0 1)
(-0.813696 0.58129 0)
(0 0 -1)
(-0.84859 0.529051 0)
(-0 0 1)
(-0.84859 0.529051 0)
(0 0 -1)
(-0.880136 0.474722 0)
(-0 0 1)
(-0.880136 0.474722 0)
(0 0 -1)
(-0.908206 0.418523 0)
(-0 0 1)
(-0.908206 0.418523 0)
(0 0 -1)
(-0.932694 0.360668 0)
(-0 0 1)
(-0.932694 0.360668 0)
(0 0 -1)
(-0.9535 0.301394 0)
(-0 0 1)
(-0.9535 0.301394 0)
(0 0 -1)
(-0.970543 0.240929 0)
(-0 0 1)
(-0.970543 0.240929 0)
(0 0 -1)
(-0.983756 0.179511 0)
(-0 0 1)
(-0.983756 0.179511 0)
(0 0 -1)
(-0.993086 0.117387 0)
(-0 0 1)
(-0.993086 0.117387 0)
(0 0 -1)
(-0.998497 0.0547984 0)
(-0 0 1)
(-0.998497 0.0547984 0)
(0 0 -1)
(-0.999968 -0.00800544 -0)
(-0 -0 1)
(-0.999968 -0.00800544 -0)
(0 0 -1)
(-0.997492 -0.0707796 -0)
(-0 -0 1)
(-0.997492 -0.0707796 -0)
(0 0 -1)
(-0.99108 -0.13327 -0)
(-0 -0 1)
(-0.99108 -0.13327 -0)
(0 0 -1)
(-0.980756 -0.195239 -0)
(-0 -0 1)
(-0.980756 -0.195239 -0)
(0 0 -1)
(-0.966561 -0.256435 -0)
(-0 -0 1)
(-0.966561 -0.256435 -0)
(0 0 -1)
(-0.948552 -0.316621 -0)
(-0 -0 1)
(-0.948552 -0.316621 -0)
(0 0 -1)
(-0.9268 -0.375556 -0)
(-0 -0 1)
(-0.9268 -0.375556 -0)
(0 0 -1)
(-0.901389 -0.43301 -0)
(-0 -0 1)
(-0.901389 -0.43301 -0)
(0 0 -1)
(-0.872423 -0.488752 -0)
(-0 -0 1)
(-0.872423 -0.488752 -0)
(0 0 -1)
(-0.840012 -0.542568 -0)
(-0 -0 1)
(-0.840012 -0.542568 -0)
(0 0 -1)
(-0.804286 -0.594243 -0)
(-0 -0 1)
(-0.804286 -0.594243 -0)
(0 0 -1)
(-0.765385 -0.643573 -0)
(-0 -0 1)
(-0.765385 -0.643573 -0)
(0 0 -1)
(-0.723466 -0.69036 -0)
(-0 -0 1)
(-0.723466 -0.69036 -0)
(0 0 -1)
(-0.678688 -0.734426 -0)
(-0 -0 1)
(-0.678688 -0.734426 -0)
(0 0 -1)
(-0.631236 -0.775591 -0)
(-0 -0 1)
(-0.631236 -0.775591 -0)
(0 0 -1)
)

// normal volume types

396
(
0
0
0
0
0
0
0
0
0
0
0
0
0
0
0
0
0
0
0
0
0
0
0
0
0
0
0
0
0
0
0
0
0
0
0
0
0
0
0
0
0
0
0
0
0
0
0
0
0
0
0
0
0
0
0
0
0
0
0
0
0
0
0
0
0
0
0
0
0
0
0
0
0
0
0
0
0
0
0
0
0
0
0
0
0
0
0
0
0
0
0
0
0
0
0
0
0
0
0
0
0
0
0
0
0
0
0
0
0
0
0
0
0
0
0
0
0
0
0
0
0
0
0
0
0
0
0
0
0
0
0
0
0
0
0
0
0
0
0
0
0
0
0
0
0
0
0
0
0
0
0
0
0
0
0
0
0
0
0
0
0
0
0
0
0
0
0
0
0
0
0
0
0
0
0
0
0
0
0
0
0
0
0
0
0
0
0
0
0
0
0
0
0
0
0
0
0
0
0
0
0
0
0
0
0
0
0
0
0
0
0
0
0
0
0
0
0
0
0
0
0
0
0
0
0
0
0
0
0
0
0
0
0
0
0
0
0
0
0
0
0
0
0
0
0
0
0
0
0
0
0
0
0
0
0
0
0
0
0
0
0
0
0
0
0
0
0
0
0
0
0
0
0
0
0
0
0
0
0
0
0
0
0
0
0
0
0
0
0
0
0
0
0
0
0
0
0
0
0
0
0
0
0
0
0
0
0
0
0
0
0
0
0
0
0
0
0
0
0
0
0
0
0
0
0
0
0
0
0
0
0
0
0
0
0
0
0
0
0
0
0
0
0
0
0
0
0
0
0
0
0
0
0
0
0
0
0
0
0
0
0
0
0
0
0
0
0
0
0
0
0
0
0
0
0
0
0
0
0
0
0
0
0
0
0
0
0
0
0
0
0
0
0
0
0
0
)

// normalDirections

200
(
2(1 -1)
2(1 -1)
2(1 -1)
2(1 -1)
2(1 -1)
2(1 -1)
2(1 -1)
2(1 -1)
2(1 -1)
2(1 -1)
2(1 -1)
2(1 -1)
2(1 -1)
2(1 -1)
2(1 -1)
2(1 -1)
2(1 -1)
2(1 -1)
2(1 -1)
2(1 -1)
2(1 -1)
2(1 -1)
2(1 -1)
2(1 -1)
2(1 -1)
2(1 -1)
2(1 -1)
2(1 -1)
2(1 -1)
2(1 -1)
2(1 -1)
2(1 -1)
2(1 -1)
2(1 -1)
2(1 -1)
2(1 -1)
2(1 -1)
2(1 -1)
2(1 -1)
2(1 -1)
2(1 -1)
2(1 -1)
2(1 -1)
2(1 -1)
2(1 -1)
2(1 -1)
2(1 -1)
2(1 -1)
2(1 -1)
2(1 -1)
2(1 -1)
2(1 -1)
2(1 -1)
2(1 -1)
2(1 -1)
2(1 -1)
2(1 -1)
2(1 -1)
2(1 -1)
2(1 -1)
2(1 -1)
2(1 -1)
2(1 -1)
2(1 -1)
2(1 -1)
2(1 -1)
2(1 -1)
2(1 -1)
2(1 -1)
2(1 -1)
2(1 -1)
2(1 -1)
2(1 -1)
2(1 -1)
2(1 -1)
2(1 -1)
2(1 -1)
2(1 -1)
2(1 -1)
2(1 -1)
2(1 -1)
2(1 -1)
2(1 -1)
2(1 -1)
2(1 -1)
2(1 -1)
2(1 -1)
2(1 -1)
2(1 -1)
2(1 -1)
2(1 -1)
2(1 -1)
2(1 -1)
2(1 -1)
2(1 -1)
2(1 -1)
2(1 -1)
2(1 -1)
2(1 -1)
2(1 -1)
2(1 -1)
2(1 -1)
2(1 -1)
2(1 -1)
2(1 -1)
2(1 -1)
2(1 -1)
2(1 -1)
2(1 -1)
2(1 -1)
2(1 -1)
2(1 -1)
2(1 -1)
2(1 -1)
2(1 -1)
2(1 -1)
2(1 -1)
2(1 -1)
2(1 -1)
2(1 -1)
2(1 -1)
2(1 -1)
2(1 -1)
2(1 -1)
2(1 -1)
2(1 -1)
2(1 -1)
2(1 -1)
2(1 -1)
2(1 -1)
2(1 -1)
2(1 -1)
2(1 -1)
2(1 -1)
2(1 -1)
2(1 -1)
2(1 -1)
2(1 -1)
2(1 -1)
2(1 -1)
2(1 -1)
2(1 -1)
2(1 -1)
2(1 -1)
2(1 -1)
2(1 -1)
2(1 -1)
2(1 -1)
2(1 -1)
2(1 -1)
2(1 -1)
2(1 -1)
2(1 -1)
2(1 -1)
2(1 -1)
2(1 -1)
2(1 -1)
2(1 -1)
2(1 -1)
2(1 -1)
2(1 -1)
2(1 -1)
2(1 -1)
2(1 -1)
2(1 -1)
2(1 -1)
2(1 -1)
2(1 -1)
2(1 -1)
2(1 -1)
2(1 -1)
2(1 -1)
2(1 -1)
2(1 -1)
2(1 -1)
2(1 -1)
2(1 -1)
2(1 -1)
2(1 -1)
2(1 -1)
2(1 -1)
2(1 -1)
2(1 -1)
2(1 -1)
2(1 -1)
2(1 -1)
2(1 -1)
2(1 -1)
2(1 -1)
2(1 -1)
2(1 -1)
2(1 -1)
2(1 -1)
2(1 -1)
2(1 -1)
2(1 -1)
2(1 -1)
2(1 -1)
2(1 -1)
2(1 -1)
)

// edgeNormals

200
(
2(0 1)
2(2 3)
2(4 1)
2(5 3)
2(6 7)
2(8 9)
2(10 11)
2(12 13)
2(14 15)
2(16 17)
2(18 19)
2(20 21)
2(22 23)
2(24 25)
2(26 27)
2(28 29)
2(30 31)
2(32 33)
2(34 35)
2(36 37)
2(38 39)
2(40 41)
2(42 43)
2(44 45)
2(46 47)
2(48 49)
2(50 51)
2(52 53)
2(54 55)
2(56 57)
2(58 59)
2(60 61)
2(62 63)
2(64 65)
2(66 67)
2(68 69)
2(70 71)
2(72 73)
2(74 75)
2(76 77)
2(78 79)
2(80 81)
2(82 83)
2(84 85)
2(86 87)
2(88 89)
2(90 91)
2(92 93)
2(94 95)
2(96 97)
2(98 99)
2(100 101)
2(102 103)
2(104 105)
2(106 107)
2(108 109)
2(110 111)
2(112 113)
2(114 115)
2(116 117)
2(118 119)
2(120 121)
2(122 123)
2(124 125)
2(126 127)
2(128 129)
2(130 131)
2(132 133)
2(134 135)
2(136 137)
2(138 139)
2(140 141)
2(142 143)
2(144 145)
2(146 147)
2(148 149)
2(150 151)
2(152 153)
2(154 155)
2(156 157)
2(158 159)
2(160 161)
2(162 163)
2(164 165)
2(166 167)
2(168 169)
2(170 171)
2(172 173)
2(174 175)
2(176 177)
2(178 179)
2(180 181)
2(182 183)
2(184 185)
2(186 187)
2(188 189)
2(190 191)
2(192 193)
2(194 195)
2(196 197)
2(198 199)
2(200 201)
2(202 199)
2(203 201)
2(204 205)
2(206 207)
2(208 209)
2(210 211)
2(212 213)
2(214 215)
2(216 217)
2(218 219)
2(220 221)
2(222 223)
2(224 225)
2(226 227)
2(228 229)
2(230 231)
2(232 233)
2(234 235)
2(236 237)
2(238 239)
2(240 241)
2(242 243)
2(244 245)
2(246 247)
2(248 249)
2(250 251)
2(252 253)
2(254 255)
2(256 257)
2(258 259)
2(260 261)
2(262 263)
2(264 265)
2(266 267)
2(268 269)
2(270 271)
2(272 273)
2(274 275)
2(276 277)
2(278 279)
2(280 281)
2(282 283)
2(284 285)
2(286 287)
2(288 289)
2(290 291)
2(292 293)
2(294 295)
2(296 297)
2(298 299)
2(300 301)
2(302 303)
2(304 305)
2(306 307)
2(308 309)
2(310 311)
2(312 313)
2(314 315)
2(316 317)
2(318 319)
2(320 321)
2(322 323)
2(324 325)
2(326 327)
2(328 329)
2(330 331)
2(332 333)
2(334 335)
2(336 337)
2(338 339)
2(340 341)
2(342 343)
2(344 345)
2(346 347)
2(348 349)
2(350 351)
2(352 353)
2(354 355)
2(356 357)
2(358 359)
2(360 361)
2(362 363)
2(364 365)
2(366 367)
2(368 369)
2(370 371)
2(372 373)
2(374 375)
2(376 377)
2(378 379)
2(380 381)
2(382 383)
2(384 385)
2(386 387)
2(388 389)
2(390 391)
2(392 393)
2(394 395)
)

// featurePointNormals
0()
// featurePointEdges
0()
// regionEdges
0()


// ************************************************************************* //
