/*--------------------------------*- C++ -*----------------------------------*\
  =========                 |
  \\      /  F ield         | OpenFOAM: The Open Source CFD Toolbox
   \\    /   O peration     | Website:  https://openfoam.org
    \\  /    A nd           | Version:  8
     \\/     M anipulation  |
\*---------------------------------------------------------------------------*/
FoamFile
{
    version     2.0;
    format      ascii;
    class       extendedFeatureEdgeMesh;
    location    "constant/extendedFeatureEdgeMesh";
    object      stirrerholder.extendedFeatureEdgeMesh;
}
// * * * * * * * * * * * * * * * * * * * * * * * * * * * * * * * * * * * * * //

// points

74
(
(-0.00182922 -0.000808668 0.052)
(-0.00193958 -0.000487896 0.052)
(-0.00166625 -0.00110618 0.052)
(-0.00145533 -0.00137186 0.052)
(-0.00120255 -0.00159808 0.052)
(-0.000915179 -0.00177833 0.052)
(-0.000601476 -0.00190741 0.052)
(-0.00027047 -0.00198163 0.052)
(6.83172e-05 -0.00199883 0.052)
(0.000405139 -0.00195854 0.052)
(0.000730306 -0.00186189 0.052)
(0.00103446 -0.00171169 0.052)
(0.00130886 -0.00151225 0.052)
(0.0015456 -0.00126929 0.052)
(0.00173788 -0.000989829 0.052)
(0.00188017 -0.000681887 0.052)
(0.00196836 -0.000354329 0.052)
(0.00199993 -1.65773e-05 0.052)
(0.00197397 0.000321651 0.052)
(0.00189121 0.000650626 0.052)
(0.00175405 0.000960884 0.052)
(0.00156643 0.0012435 0.052)
(0.00133375 0.00149034 0.052)
(0.0010627 0.00169431 0.052)
(0.000761069 0.00184953 0.052)
(0.000437549 0.00195155 0.052)
(0.000101442 0.00199743 0.052)
(-0.000237584 0.00198584 0.052)
(-0.000569775 0.00191712 0.052)
(-0.000885574 0.00179325 0.052)
(-0.0011759 0.0016178 0.052)
(-0.00143239 0.0013958 0.052)
(-0.00164768 0.00113365 0.052)
(-0.00181557 0.00083888 0.052)
(-0.00193122 0.000519981 0.052)
(-0.00199132 0.000186124 0.052)
(-0.00199413 -0.000153089 0.052)
(-0.00182922 -0.000808668 0.007)
(-0.00166625 -0.00110618 0.007)
(-0.00193958 -0.000487896 0.007)
(-0.00199413 -0.000153089 0.007)
(-0.00199132 0.000186124 0.007)
(-0.00193122 0.000519981 0.007)
(-0.00181557 0.00083888 0.007)
(-0.00164768 0.00113365 0.007)
(-0.00143239 0.0013958 0.007)
(-0.0011759 0.0016178 0.007)
(-0.000885574 0.00179325 0.007)
(-0.000569775 0.00191712 0.007)
(-0.000237584 0.00198584 0.007)
(0.000101442 0.00199743 0.007)
(0.000437549 0.00195155 0.007)
(0.000761069 0.00184953 0.007)
(0.0010627 0.00169431 0.007)
(0.00133375 0.00149034 0.007)
(0.00156643 0.0012435 0.007)
(0.00175405 0.000960884 0.007)
(0.00189121 0.000650626 0.007)
(0.00197397 0.000321651 0.007)
(0.00199993 -1.65773e-05 0.007)
(0.00196836 -0.000354329 0.007)
(0.00188017 -0.000681887 0.007)
(0.00173788 -0.000989829 0.007)
(0.0015456 -0.00126929 0.007)
(0.00130886 -0.00151225 0.007)
(0.00103446 -0.00171169 0.007)
(0.000730306 -0.00186189 0.007)
(0.000405139 -0.00195854 0.007)
(6.83172e-05 -0.00199883 0.007)
(-0.00027047 -0.00198163 0.007)
(-0.000601476 -0.00190741 0.007)
(-0.000915179 -0.00177833 0.007)
(-0.00120255 -0.00159808 0.007)
(-0.00145533 -0.00137186 0.007)
)

// edges

74
(
(0 1)
(2 0)
(3 2)
(4 3)
(5 4)
(6 5)
(7 6)
(8 7)
(9 8)
(10 9)
(11 10)
(12 11)
(13 12)
(14 13)
(15 14)
(16 15)
(17 16)
(18 17)
(19 18)
(20 19)
(21 20)
(22 21)
(23 22)
(24 23)
(25 24)
(26 25)
(27 26)
(28 27)
(29 28)
(30 29)
(31 30)
(32 31)
(33 32)
(34 33)
(35 34)
(36 35)
(1 36)
(37 38)
(39 37)
(40 39)
(41 40)
(42 41)
(43 42)
(44 43)
(45 44)
(46 45)
(47 46)
(48 47)
(49 48)
(50 49)
(51 50)
(52 51)
(53 52)
(54 53)
(55 54)
(56 55)
(57 56)
(58 57)
(59 58)
(60 59)
(61 60)
(62 61)
(63 62)
(64 63)
(65 64)
(66 65)
(67 66)
(68 67)
(69 68)
(70 69)
(71 70)
(72 71)
(73 72)
(38 73)
)

// concaveStart mixedStart nonFeatureStart
0 0 0
// internalStart flatStart openStart multipleStart
74 74 74 74
// normals

144
(
(-0.945606 -0.325313 0.00112076)
(-0 -0 1)
(-0.877025 -0.480443 0.00112077)
(-0.783215 -0.62175 0.00112074)
(0 0 1)
(-0.666875 -0.745169 0.00112075)
(0 0 1)
(-0.531345 -0.847155 0.00112077)
(0 0 1)
(-0.380536 -0.924766 0.00112071)
(0 0 1)
(-0.218773 -0.975775 0.00112078)
(0 0 1)
(-0.0507215 -0.998712 0.00112082)
(0 0 1)
(0.118792 -0.992919 0.0011207)
(0 0 1)
(0.284888 -0.95856 0.0011208)
(0 0 1)
(0.442786 -0.896626 0.00112088)
(0 0 1)
(0.587949 -0.808897 0.00112069)
(0 0 1)
(0.716195 -0.6979 0.00112073)
(0 0 1)
(0.823839 -0.566822 0.00112082)
(0 0 1)
(0.907783 -0.41944 0.0011207)
(0 0 1)
(0.96561 -0.259991 0.00112067)
(0 0 1)
(0.99566 -0.0930591 0.00112083)
(0 0 1)
(0.997066 0.0765425 0.00112074)
(0 0 1)
(0.969788 0.243948 0.00112082)
(0 0 1)
(0.914611 0.404334 0.00112081)
(0.833121 0.553089 0.0011208)
(0 0 1)
(0.727667 0.68593 0.00112078)
(0 0 1)
(0.601277 0.79904 0.00112085)
(0 0 1)
(0.457588 0.889164 0.00112078)
(0 0 1)
(0.300739 0.953706 0.00112085)
(0 0 1)
(0.135235 0.990813 0.00112073)
(0 0 1)
(-0.0341603 0.999416 0.00112081)
(-0 0 1)
(-0.202568 0.979268 0.00112083)
(-0 0 1)
(-0.365151 0.930948 0.0011207)
(-0 0 1)
(-0.517234 0.855844 0.00112079)
(-0 0 1)
(-0.654429 0.756123 0.00112083)
(-0 0 1)
(-0.7728 0.634649 0.0011208)
(-0 0 1)
(-0.868942 0.494912 0.00112081)
(-0 0 1)
(-0.940083 0.340943 0.00112087)
(-0 0 1)
(-0.98418 0.177166 0.00112085)
(-0 0 1)
(-0.999965 0.00828646 0.00112072)
(-0 0 1)
(-0.986983 -0.160823 0.0011208)
(-0 -0 1)
(-0.877025 -0.480443 -0.00112077)
(0 0 -1)
(-0.945606 -0.325313 -0.00112076)
(-0.986983 -0.160823 -0.0011208)
(0 0 -1)
(-0.999965 0.00828646 -0.00112072)
(0 0 -1)
(-0.98418 0.177166 -0.00112085)
(0 0 -1)
(-0.940083 0.340943 -0.00112087)
(0 0 -1)
(-0.868942 0.494912 -0.00112081)
(0 0 -1)
(-0.7728 0.634649 -0.0011208)
(0 0 -1)
(-0.654429 0.756123 -0.00112083)
(0 0 -1)
(-0.517234 0.855844 -0.00112079)
(0 0 -1)
(-0.365151 0.930948 -0.0011207)
(0 0 -1)
(-0.202568 0.979268 -0.00112083)
(0 0 -1)
(-0.0341603 0.999416 -0.00112081)
(0 0 -1)
(0.135235 0.990813 -0.00112073)
(0 0 -1)
(0.300739 0.953706 -0.00112085)
(0 0 -1)
(0.457588 0.889164 -0.00112078)
(0 0 -1)
(0.601277 0.79904 -0.00112085)
(0 0 -1)
(0.727667 0.68593 -0.00112078)
(0 0 -1)
(0.833121 0.553089 -0.0011208)
(0 0 -1)
(0.914611 0.404334 -0.00112081)
(0.969788 0.243948 -0.00112082)
(0 0 -1)
(0.997066 0.0765425 -0.00112074)
(0 0 -1)
(0.99566 -0.0930591 -0.00112083)
(0 0 -1)
(0.96561 -0.259991 -0.00112067)
(0 0 -1)
(0.907783 -0.41944 -0.0011207)
(0 0 -1)
(0.823839 -0.566822 -0.00112082)
(0 0 -1)
(0.716195 -0.6979 -0.00112073)
(0 0 -1)
(0.587949 -0.808897 -0.00112069)
(0 0 -1)
(0.442786 -0.896626 -0.00112088)
(0 0 -1)
(0.284888 -0.95856 -0.0011208)
(0 0 -1)
(0.118792 -0.992919 -0.0011207)
(0 0 -1)
(-0.0507215 -0.998712 -0.00112082)
(0 0 -1)
(-0.218773 -0.975775 -0.00112078)
(0 0 -1)
(-0.380536 -0.924766 -0.00112071)
(0 0 -1)
(-0.531345 -0.847155 -0.00112077)
(0 0 -1)
(-0.666875 -0.745169 -0.00112075)
(0 0 -1)
(-0.783215 -0.62175 -0.00112074)
(0 0 -1)
)

// normal volume types

144
(
0
0
0
0
0
0
0
0
0
0
0
0
0
0
0
0
0
0
0
0
0
0
0
0
0
0
0
0
0
0
0
0
0
0
0
0
0
0
0
0
0
0
0
0
0
0
0
0
0
0
0
0
0
0
0
0
0
0
0
0
0
0
0
0
0
0
0
0
0
0
0
0
0
0
0
0
0
0
0
0
0
0
0
0
0
0
0
0
0
0
0
0
0
0
0
0
0
0
0
0
0
0
0
0
0
0
0
0
0
0
0
0
0
0
0
0
0
0
0
0
0
0
0
0
0
0
0
0
0
0
0
0
0
0
0
0
0
0
0
0
0
0
0
0
)

// normalDirections

74
(
2(1 -1)
2(1 -1)
2(1 -1)
2(1 -1)
2(1 -1)
2(1 -1)
2(1 -1)
2(1 -1)
2(1 -1)
2(1 -1)
2(1 -1)
2(1 -1)
2(1 -1)
2(1 -1)
2(1 -1)
2(1 -1)
2(1 -1)
2(1 -1)
2(1 -1)
2(1 -1)
2(1 -1)
2(1 -1)
2(1 -1)
2(1 -1)
2(1 -1)
2(1 -1)
2(1 -1)
2(1 -1)
2(1 -1)
2(1 -1)
2(1 -1)
2(1 -1)
2(1 -1)
2(1 -1)
2(1 -1)
2(1 -1)
2(1 -1)
2(1 -1)
2(1 -1)
2(1 -1)
2(1 -1)
2(1 -1)
2(1 -1)
2(1 -1)
2(1 -1)
2(1 -1)
2(1 -1)
2(1 -1)
2(1 -1)
2(1 -1)
2(1 -1)
2(1 -1)
2(1 -1)
2(1 -1)
2(1 -1)
2(1 -1)
2(1 -1)
2(1 -1)
2(1 -1)
2(1 -1)
2(1 -1)
2(1 -1)
2(1 -1)
2(1 -1)
2(1 -1)
2(1 -1)
2(1 -1)
2(1 -1)
2(1 -1)
2(1 -1)
2(1 -1)
2(1 -1)
2(1 -1)
2(1 -1)
)

// edgeNormals

74
(
2(0 1)
2(2 1)
2(3 4)
2(5 6)
2(7 8)
2(9 10)
2(11 12)
2(13 14)
2(15 16)
2(17 18)
2(19 20)
2(21 22)
2(23 24)
2(25 26)
2(27 28)
2(29 30)
2(31 32)
2(33 34)
2(35 36)
2(37 36)
2(38 39)
2(40 41)
2(42 43)
2(44 45)
2(46 47)
2(48 49)
2(50 51)
2(52 53)
2(54 55)
2(56 57)
2(58 59)
2(60 61)
2(62 63)
2(64 65)
2(66 67)
2(68 69)
2(70 71)
2(72 73)
2(74 73)
2(75 76)
2(77 78)
2(79 80)
2(81 82)
2(83 84)
2(85 86)
2(87 88)
2(89 90)
2(91 92)
2(93 94)
2(95 96)
2(97 98)
2(99 100)
2(101 102)
2(103 104)
2(105 106)
2(107 108)
2(109 108)
2(110 111)
2(112 113)
2(114 115)
2(116 117)
2(118 119)
2(120 121)
2(122 123)
2(124 125)
2(126 127)
2(128 129)
2(130 131)
2(132 133)
2(134 135)
2(136 137)
2(138 139)
2(140 141)
2(142 143)
)

// featurePointNormals
0()
// featurePointEdges
0()
// regionEdges
0()


// ************************************************************************* //
