/*--------------------------------*- C++ -*----------------------------------*\
  =========                 |
  \\      /  F ield         | OpenFOAM: The Open Source CFD Toolbox
   \\    /   O peration     | Website:  https://openfoam.org
    \\  /    A nd           | Version:  8
     \\/     M anipulation  |
\*---------------------------------------------------------------------------*/
FoamFile
{
    version     2.0;
    format      ascii;
    class       extendedFeatureEdgeMesh;
    location    "constant/extendedFeatureEdgeMesh";
    object      wall1.extendedFeatureEdgeMesh;
}
// * * * * * * * * * * * * * * * * * * * * * * * * * * * * * * * * * * * * * //

// points

332
(
(-0.00997151 -0.0105271 0.052)
(-0.00913641 -0.0112595 0.052)
(-0.0107481 -0.00973286 0.052)
(-0.0114616 -0.00888154 0.052)
(-0.0121078 -0.0079781 0.052)
(-0.012683 -0.00702785 0.052)
(-0.0131838 -0.00603635 0.052)
(-0.0136072 -0.00500943 0.052)
(-0.0139507 -0.00395311 0.052)
(-0.0142124 -0.00287359 0.052)
(-0.0143907 -0.00177721 0.052)
(-0.0144845 -0.000670403 0.052)
(-0.0144933 0.000440341 0.052)
(-0.0144171 0.0015485 0.052)
(-0.0142562 0.00264757 0.052)
(-0.0140117 0.00373111 0.052)
(-0.013685 0.00479275 0.052)
(-0.013278 0.00582627 0.052)
(-0.012793 0.00682559 0.052)
(-0.012233 0.00778486 0.052)
(-0.0116012 0.00869844 0.052)
(-0.0109013 0.00956098 0.052)
(-0.0101374 0.0103674 0.052)
(-0.00931404 0.011113 0.052)
(-0.00843601 0.0117934 0.052)
(-0.00750849 0.0124045 0.052)
(-0.0065369 0.0129429 0.052)
(-0.00552695 0.0134053 0.052)
(-0.00448456 0.0137891 0.052)
(-0.00341586 0.0140919 0.052)
(-0.00232711 0.014312 0.052)
(-0.00122471 0.0144482 0.052)
(-0.000115116 0.0144995 0.052)
(0.000995151 0.0144658 0.052)
(0.00209958 0.0143472 0.052)
(0.00319168 0.0141444 0.052)
(0.00426506 0.0138585 0.052)
(0.00531341 0.0134914 0.052)
(0.00633057 0.0130451 0.052)
(0.00731059 0.0125222 0.052)
(0.0082477 0.0119258 0.052)
(0.00913641 0.0112595 0.052)
(0.00997151 0.0105271 0.052)
(0.0107481 0.00973286 0.052)
(0.0114616 0.00888154 0.052)
(0.0121078 0.0079781 0.052)
(0.012683 0.00702785 0.052)
(0.0131838 0.00603635 0.052)
(0.0136072 0.00500943 0.052)
(0.0139507 0.00395311 0.052)
(0.0142124 0.00287359 0.052)
(0.0143907 0.00177721 0.052)
(0.0144845 0.000670403 0.052)
(0.0144933 -0.000440341 0.052)
(0.0144171 -0.0015485 0.052)
(0.0142562 -0.00264757 0.052)
(0.0140117 -0.00373111 0.052)
(0.013685 -0.00479275 0.052)
(0.013278 -0.00582627 0.052)
(0.012793 -0.00682559 0.052)
(0.012233 -0.00778486 0.052)
(0.0116012 -0.00869844 0.052)
(0.0109013 -0.00956098 0.052)
(0.0101374 -0.0103674 0.052)
(0.00931404 -0.011113 0.052)
(0.00843601 -0.0117934 0.052)
(0.00750849 -0.0124045 0.052)
(0.0065369 -0.0129429 0.052)
(0.00552695 -0.0134053 0.052)
(0.00448456 -0.0137891 0.052)
(0.00341586 -0.0140919 0.052)
(0.00232711 -0.014312 0.052)
(0.00122471 -0.0144482 0.052)
(0.000115116 -0.0144995 0.052)
(-0.000995151 -0.0144658 0.052)
(-0.00209958 -0.0143472 0.052)
(-0.00319168 -0.0141444 0.052)
(-0.00426506 -0.0138585 0.052)
(-0.00531341 -0.0134914 0.052)
(-0.00633057 -0.0130451 0.052)
(-0.00731059 -0.0125222 0.052)
(-0.0082477 -0.0119258 0.052)
(-0.00997151 -0.0105271 1.0899e-17)
(-0.0107481 -0.00973286 1.08209e-17)
(-0.00913641 -0.0112595 1.09132e-17)
(-0.0082477 -0.0119258 1.08633e-17)
(-0.00731059 -0.0125222 1.07497e-17)
(-0.00633057 -0.0130451 1.05729e-17)
(-0.00531341 -0.0134914 1.03342e-17)
(-0.00426506 -0.0138585 1.00348e-17)
(-0.00319168 -0.0141444 9.6765e-18)
(-0.00209958 -0.0143472 9.26142e-18)
(-0.000995151 -0.0144658 8.79199e-18)
(0.000115116 -0.0144995 8.27097e-18)
(0.00122471 -0.0144482 7.70141e-18)
(0.00232711 -0.014312 7.08665e-18)
(0.00341586 -0.0140919 6.43031e-18)
(0.00448456 -0.0137891 5.73624e-18)
(0.00552695 -0.0134053 5.0085e-18)
(0.0065369 -0.0129429 4.25137e-18)
(0.00750849 -0.0124045 3.46929e-18)
(0.00843601 -0.0117934 2.66684e-18)
(0.00931404 -0.011113 1.84876e-18)
(0.0101374 -0.0103674 1.01982e-18)
(0.0109013 -0.00956098 1.84894e-19)
(0.0116012 -0.00869844 -6.51115e-19)
(0.012233 -0.00778486 -1.4833e-18)
(0.012793 -0.00682559 -2.30679e-18)
(0.013278 -0.00582627 -3.11673e-18)
(0.013685 -0.00479275 -3.90839e-18)
(0.0140117 -0.00373111 -4.67711e-18)
(0.0142562 -0.00264757 -5.41838e-18)
(0.0144171 -0.0015485 -6.12785e-18)
(0.0144933 -0.000440341 -6.80137e-18)
(0.0144845 0.000670403 -7.43497e-18)
(0.0143907 0.00177721 -8.02494e-18)
(0.0142124 0.00287359 -8.56782e-18)
(0.0139507 0.00395311 -9.06041e-18)
(0.0136072 0.00500943 -9.49984e-18)
(0.0131838 0.00603635 -9.88352e-18)
(0.012683 0.00702785 -1.02092e-17)
(0.0121078 0.0079781 -1.0475e-17)
(0.0114616 0.00888154 -1.06793e-17)
(0.0107481 0.00973286 -1.08209e-17)
(0.00997151 0.0105271 -1.0899e-17)
(0.00913641 0.0112595 -1.09132e-17)
(0.0082477 0.0119258 -1.08633e-17)
(0.00731059 0.0125222 -1.07497e-17)
(0.00633057 0.0130451 -1.05729e-17)
(0.00531341 0.0134914 -1.03342e-17)
(0.00426506 0.0138585 -1.00348e-17)
(0.00319168 0.0141444 -9.6765e-18)
(0.00209958 0.0143472 -9.26142e-18)
(0.000995151 0.0144658 -8.79199e-18)
(-0.000115116 0.0144995 -8.27097e-18)
(-0.00122471 0.0144482 -7.70141e-18)
(-0.00232711 0.014312 -7.08665e-18)
(-0.00341586 0.0140919 -6.43031e-18)
(-0.00448456 0.0137891 -5.73624e-18)
(-0.00552695 0.0134053 -5.0085e-18)
(-0.0065369 0.0129429 -4.25137e-18)
(-0.00750849 0.0124045 -3.46929e-18)
(-0.00843601 0.0117934 -2.66684e-18)
(-0.00931404 0.011113 -1.84876e-18)
(-0.0101374 0.0103674 -1.01982e-18)
(-0.0109013 0.00956098 -1.84894e-19)
(-0.0116012 0.00869844 6.51115e-19)
(-0.012233 0.00778486 1.4833e-18)
(-0.012793 0.00682559 2.30679e-18)
(-0.013278 0.00582627 3.11673e-18)
(-0.013685 0.00479275 3.90839e-18)
(-0.0140117 0.00373111 4.67711e-18)
(-0.0142562 0.00264757 5.41838e-18)
(-0.0144171 0.0015485 6.12785e-18)
(-0.0144933 0.000440341 6.80137e-18)
(-0.0144845 -0.000670403 7.43497e-18)
(-0.0143907 -0.00177721 8.02494e-18)
(-0.0142124 -0.00287359 8.56782e-18)
(-0.0139507 -0.00395311 9.06041e-18)
(-0.0136072 -0.00500943 9.49984e-18)
(-0.0131838 -0.00603635 9.88352e-18)
(-0.012683 -0.00702785 1.02092e-17)
(-0.0121078 -0.0079781 1.0475e-17)
(-0.0114616 -0.00888154 1.06793e-17)
(-0.0103154 -0.0108901 0.052)
(-0.0111003 -0.0100887 0.052)
(-0.0094727 -0.0116305 0.052)
(-0.00857706 -0.0123059 0.052)
(-0.00763346 -0.0129124 0.052)
(-0.00664717 -0.0134468 0.052)
(-0.00562371 -0.0139059 0.052)
(-0.0045688 -0.0142873 0.052)
(-0.00348833 -0.0145887 0.052)
(-0.00238836 -0.0148086 0.052)
(-0.00127503 -0.0149457 0.052)
(-0.000154569 -0.0149992 0.052)
(0.000966755 -0.0149688 0.052)
(0.00208267 -0.0148547 0.052)
(0.00318694 -0.0146575 0.052)
(0.00427339 -0.0143784 0.052)
(0.00533594 -0.0140188 0.052)
(0.00636865 -0.0135809 0.052)
(0.00736574 -0.013067 0.052)
(0.00832164 -0.01248 0.052)
(0.009231 -0.0118232 0.052)
(0.0100887 -0.0111003 0.052)
(0.0108901 -0.0103154 0.052)
(0.0116305 -0.0094727 0.052)
(0.0123059 -0.00857706 0.052)
(0.0129124 -0.00763346 0.052)
(0.0134468 -0.00664717 0.052)
(0.0139059 -0.00562371 0.052)
(0.0142873 -0.0045688 0.052)
(0.0145887 -0.00348833 0.052)
(0.0148086 -0.00238836 0.052)
(0.0149457 -0.00127503 0.052)
(0.0149992 -0.000154569 0.052)
(0.0149688 0.000966755 0.052)
(0.0148547 0.00208267 0.052)
(0.0146575 0.00318694 0.052)
(0.0143784 0.00427339 0.052)
(0.0140188 0.00533594 0.052)
(0.0135809 0.00636865 0.052)
(0.013067 0.00736574 0.052)
(0.01248 0.00832164 0.052)
(0.0118232 0.009231 0.052)
(0.0111003 0.0100887 0.052)
(0.0103154 0.0108901 0.052)
(0.0094727 0.0116305 0.052)
(0.00857706 0.0123059 0.052)
(0.00763346 0.0129124 0.052)
(0.00664717 0.0134468 0.052)
(0.00562371 0.0139059 0.052)
(0.0045688 0.0142873 0.052)
(0.00348833 0.0145887 0.052)
(0.00238836 0.0148086 0.052)
(0.00127503 0.0149457 0.052)
(0.000154569 0.0149992 0.052)
(-0.000966755 0.0149688 0.052)
(-0.00208267 0.0148547 0.052)
(-0.00318694 0.0146575 0.052)
(-0.00427339 0.0143784 0.052)
(-0.00533594 0.0140188 0.052)
(-0.00636865 0.0135809 0.052)
(-0.00736574 0.013067 0.052)
(-0.00832164 0.01248 0.052)
(-0.009231 0.0118232 0.052)
(-0.0100887 0.0111003 0.052)
(-0.0108901 0.0103154 0.052)
(-0.0116305 0.0094727 0.052)
(-0.0123059 0.00857706 0.052)
(-0.0129124 0.00763346 0.052)
(-0.0134468 0.00664717 0.052)
(-0.0139059 0.00562371 0.052)
(-0.0142873 0.0045688 0.052)
(-0.0145887 0.00348833 0.052)
(-0.0148086 0.00238836 0.052)
(-0.0149457 0.00127503 0.052)
(-0.0149992 0.000154569 0.052)
(-0.0149688 -0.000966755 0.052)
(-0.0148547 -0.00208267 0.052)
(-0.0146575 -0.00318694 0.052)
(-0.0143784 -0.00427339 0.052)
(-0.0140188 -0.00533594 0.052)
(-0.0135809 -0.00636865 0.052)
(-0.013067 -0.00736574 0.052)
(-0.01248 -0.00832164 0.052)
(-0.0118232 -0.009231 0.052)
(-0.0103154 -0.0108901 1.12748e-17)
(-0.0094727 -0.0116305 1.12899e-17)
(-0.0111003 -0.0100887 1.11967e-17)
(-0.0118232 -0.009231 1.1056e-17)
(-0.01248 -0.00832164 1.08534e-17)
(-0.013067 -0.00736574 1.05901e-17)
(-0.0135809 -0.00636865 1.02676e-17)
(-0.0140188 -0.00533594 9.88771e-18)
(-0.0143784 -0.00427339 9.4525e-18)
(-0.0146575 -0.00318694 8.96443e-18)
(-0.0148547 -0.00208267 8.42622e-18)
(-0.0149688 -0.000966755 7.84089e-18)
(-0.0149992 0.000154569 7.21171e-18)
(-0.0149457 0.00127503 6.54221e-18)
(-0.0148086 0.00238836 5.83611e-18)
(-0.0145887 0.00348833 5.09738e-18)
(-0.0142873 0.0045688 4.33014e-18)
(-0.0139059 0.00562371 3.53868e-18)
(-0.0134468 0.00664717 2.72744e-18)
(-0.0129124 0.00763346 1.90094e-18)
(-0.0123059 0.00857706 1.06381e-18)
(-0.0116305 0.0094727 2.20729e-19)
(-0.0108901 0.0103154 -6.23584e-19)
(-0.0100887 0.0111003 -1.46441e-18)
(-0.009231 0.0118232 -2.29705e-18)
(-0.00832164 0.01248 -3.11684e-18)
(-0.00736574 0.013067 -3.91919e-18)
(-0.00636865 0.0135809 -4.69964e-18)
(-0.00533594 0.0140188 -5.4538e-18)
(-0.00427339 0.0143784 -6.17746e-18)
(-0.00318694 0.0146575 -6.86657e-18)
(-0.00208267 0.0148547 -7.51728e-18)
(-0.000966755 0.0149688 -8.12595e-18)
(0.000154569 0.0149992 -8.68918e-18)
(0.00127503 0.0149457 -9.20382e-18)
(0.00238836 0.0148086 -9.66698e-18)
(0.00348833 0.0145887 -1.00761e-17)
(0.0045688 0.0142873 -1.04288e-17)
(0.00562371 0.0139059 -1.07233e-17)
(0.00664717 0.0134468 -1.09577e-17)
(0.00763346 0.0129124 -1.11309e-17)
(0.00857706 0.0123059 -1.12418e-17)
(0.0094727 0.0116305 -1.12899e-17)
(0.0103154 0.0108901 -1.12748e-17)
(0.0111003 0.0100887 -1.11967e-17)
(0.0118232 0.009231 -1.1056e-17)
(0.01248 0.00832164 -1.08534e-17)
(0.013067 0.00736574 -1.05901e-17)
(0.0135809 0.00636865 -1.02676e-17)
(0.0140188 0.00533594 -9.88771e-18)
(0.0143784 0.00427339 -9.4525e-18)
(0.0146575 0.00318694 -8.96443e-18)
(0.0148547 0.00208267 -8.42622e-18)
(0.0149688 0.000966755 -7.84089e-18)
(0.0149992 -0.000154569 -7.21171e-18)
(0.0149457 -0.00127503 -6.54221e-18)
(0.0148086 -0.00238836 -5.83611e-18)
(0.0145887 -0.00348833 -5.09738e-18)
(0.0142873 -0.0045688 -4.33014e-18)
(0.0139059 -0.00562371 -3.53868e-18)
(0.0134468 -0.00664717 -2.72744e-18)
(0.0129124 -0.00763346 -1.90094e-18)
(0.0123059 -0.00857706 -1.06381e-18)
(0.0116305 -0.0094727 -2.20729e-19)
(0.0108901 -0.0103154 6.23584e-19)
(0.0100887 -0.0111003 1.46441e-18)
(0.009231 -0.0118232 2.29705e-18)
(0.00832164 -0.01248 3.11684e-18)
(0.00736574 -0.013067 3.91919e-18)
(0.00636865 -0.0135809 4.69964e-18)
(0.00533594 -0.0140188 5.4538e-18)
(0.00427339 -0.0143784 6.17746e-18)
(0.00318694 -0.0146575 6.86657e-18)
(0.00208267 -0.0148547 7.51728e-18)
(0.000966755 -0.0149688 8.12595e-18)
(-0.000154569 -0.0149992 8.68918e-18)
(-0.00127503 -0.0149457 9.20382e-18)
(-0.00238836 -0.0148086 9.66698e-18)
(-0.00348833 -0.0145887 1.00761e-17)
(-0.0045688 -0.0142873 1.04288e-17)
(-0.00562371 -0.0139059 1.07233e-17)
(-0.00664717 -0.0134468 1.09577e-17)
(-0.00763346 -0.0129124 1.11309e-17)
(-0.00857706 -0.0123059 1.12418e-17)
)

// edges

332
(
(0 1)
(2 0)
(3 2)
(4 3)
(5 4)
(6 5)
(7 6)
(8 7)
(9 8)
(10 9)
(11 10)
(12 11)
(13 12)
(14 13)
(15 14)
(16 15)
(17 16)
(18 17)
(19 18)
(20 19)
(21 20)
(22 21)
(23 22)
(24 23)
(25 24)
(26 25)
(27 26)
(28 27)
(29 28)
(30 29)
(31 30)
(32 31)
(33 32)
(34 33)
(35 34)
(36 35)
(37 36)
(38 37)
(39 38)
(40 39)
(41 40)
(42 41)
(43 42)
(44 43)
(45 44)
(46 45)
(47 46)
(48 47)
(49 48)
(50 49)
(51 50)
(52 51)
(53 52)
(54 53)
(55 54)
(56 55)
(57 56)
(58 57)
(59 58)
(60 59)
(61 60)
(62 61)
(63 62)
(64 63)
(65 64)
(66 65)
(67 66)
(68 67)
(69 68)
(70 69)
(71 70)
(72 71)
(73 72)
(74 73)
(75 74)
(76 75)
(77 76)
(78 77)
(79 78)
(80 79)
(81 80)
(1 81)
(82 83)
(84 82)
(85 84)
(86 85)
(87 86)
(88 87)
(89 88)
(90 89)
(91 90)
(92 91)
(93 92)
(94 93)
(95 94)
(96 95)
(97 96)
(98 97)
(99 98)
(100 99)
(101 100)
(102 101)
(103 102)
(104 103)
(105 104)
(106 105)
(107 106)
(108 107)
(109 108)
(110 109)
(111 110)
(112 111)
(113 112)
(114 113)
(115 114)
(116 115)
(117 116)
(118 117)
(119 118)
(120 119)
(121 120)
(122 121)
(123 122)
(124 123)
(125 124)
(126 125)
(127 126)
(128 127)
(129 128)
(130 129)
(131 130)
(132 131)
(133 132)
(134 133)
(135 134)
(136 135)
(137 136)
(138 137)
(139 138)
(140 139)
(141 140)
(142 141)
(143 142)
(144 143)
(145 144)
(146 145)
(147 146)
(148 147)
(149 148)
(150 149)
(151 150)
(152 151)
(153 152)
(154 153)
(155 154)
(156 155)
(157 156)
(158 157)
(159 158)
(160 159)
(161 160)
(162 161)
(163 162)
(83 163)
(164 165)
(166 164)
(167 166)
(168 167)
(169 168)
(170 169)
(171 170)
(172 171)
(173 172)
(174 173)
(175 174)
(176 175)
(177 176)
(178 177)
(179 178)
(180 179)
(181 180)
(182 181)
(183 182)
(184 183)
(185 184)
(186 185)
(187 186)
(188 187)
(189 188)
(190 189)
(191 190)
(192 191)
(193 192)
(194 193)
(195 194)
(196 195)
(197 196)
(198 197)
(199 198)
(200 199)
(201 200)
(202 201)
(203 202)
(204 203)
(205 204)
(206 205)
(207 206)
(208 207)
(209 208)
(210 209)
(211 210)
(212 211)
(213 212)
(214 213)
(215 214)
(216 215)
(217 216)
(218 217)
(219 218)
(220 219)
(221 220)
(222 221)
(223 222)
(224 223)
(225 224)
(226 225)
(227 226)
(228 227)
(229 228)
(230 229)
(231 230)
(232 231)
(233 232)
(234 233)
(235 234)
(236 235)
(237 236)
(238 237)
(239 238)
(240 239)
(241 240)
(242 241)
(243 242)
(244 243)
(245 244)
(246 245)
(247 246)
(165 247)
(248 249)
(250 248)
(251 250)
(252 251)
(253 252)
(254 253)
(255 254)
(256 255)
(257 256)
(258 257)
(259 258)
(260 259)
(261 260)
(262 261)
(263 262)
(264 263)
(265 264)
(266 265)
(267 266)
(268 267)
(269 268)
(270 269)
(271 270)
(272 271)
(273 272)
(274 273)
(275 274)
(276 275)
(277 276)
(278 277)
(279 278)
(280 279)
(281 280)
(282 281)
(283 282)
(284 283)
(285 284)
(286 285)
(287 286)
(288 287)
(289 288)
(290 289)
(291 290)
(292 291)
(293 292)
(294 293)
(295 294)
(296 295)
(297 296)
(298 297)
(299 298)
(300 299)
(301 300)
(302 301)
(303 302)
(304 303)
(305 304)
(306 305)
(307 306)
(308 307)
(309 308)
(310 309)
(311 310)
(312 311)
(313 312)
(314 313)
(315 314)
(316 315)
(317 316)
(318 317)
(319 318)
(320 319)
(321 320)
(322 321)
(323 322)
(324 323)
(325 324)
(326 325)
(327 326)
(328 327)
(329 328)
(330 329)
(331 330)
(249 331)
)

// concaveStart mixedStart nonFeatureStart
0 0 0
// internalStart flatStart openStart multipleStart
332 332 332 332
// normals

664
(
(0.659376 0.751813 0)
(0 0 1)
(0.714995 0.69913 0)
(0 0 1)
(0.766412 0.642349 0)
(0 0 1)
(0.813338 0.581791 0)
(0 0 1)
(0.855486 0.517826 0)
(0 0 1)
(0.892612 0.450826 0)
(0 0 1)
(0.924507 0.381166 0)
(0 0 1)
(0.950972 0.309278 0)
(0 0 1)
(0.971854 0.235582 0)
(0 0 1)
(0.987039 0.160482 0)
(0 0 1)
(0.996427 0.0844637 0)
(0 0 1)
(0.999968 0.00794003 0)
(0 0 1)
(0.997642 -0.0686272 0)
(0 0 1)
(0.989461 -0.1448 0)
(0 0 1)
(0.975474 -0.220116 0)
(0 0 1)
(0.955761 -0.294144 0)
(0 0 1)
(0.930443 -0.366438 0)
(0 0 1)
(0.899659 -0.436593 0)
(0 0 1)
(0.8636 -0.504178 0)
(0 0 1)
(0.822471 -0.568808 0)
(0 0 1)
(0.776516 -0.630097 0)
(0 0 1)
(0.726005 -0.687689 0)
(0 0 1)
(0.671231 -0.741249 0)
(0 0 1)
(0.612518 -0.790457 0)
(0 0 1)
(0.550216 -0.835022 0)
(0 0 1)
(0.484678 -0.874692 0)
(0 0 1)
(0.416302 -0.909227 0)
(0 0 1)
(0.345479 -0.938427 0)
(0 0 1)
(0.272628 -0.96212 0)
(0 0 1)
(0.198176 -0.980166 0)
(0 0 1)
(0.122572 -0.99246 0)
(0 0 1)
(0.0462291 -0.998931 0)
(0 0 1)
(-0.0303666 -0.999539 -0)
(0 0 1)
(-0.10679 -0.994282 -0)
(0 0 1)
(-0.182592 -0.983189 -0)
(0 0 1)
(-0.257324 -0.966325 -0)
(0 0 1)
(-0.330533 -0.943794 -0)
(0 0 1)
(-0.401809 -0.915723 -0)
(0 0 1)
(-0.470732 -0.882276 -0)
(0 0 1)
(-0.536885 -0.843655 -0)
(0 0 1)
(-0.599893 -0.80008 -0)
(0 0 1)
(-0.659376 -0.751813 -0)
(0 0 1)
(-0.714995 -0.69913 -0)
(0 -0 1)
(-0.766412 -0.642349 -0)
(0 -0 1)
(-0.813338 -0.581791 -0)
(0 -0 1)
(-0.855486 -0.517826 -0)
(0 -0 1)
(-0.892612 -0.450826 -0)
(0 -0 1)
(-0.924507 -0.381166 -0)
(0 -0 1)
(-0.950972 -0.309278 -0)
(0 -0 1)
(-0.971854 -0.235582 -0)
(0 -0 1)
(-0.987039 -0.160482 -0)
(0 -0 1)
(-0.996427 -0.0844637 -0)
(0 -0 1)
(-0.999968 -0.00794003 -0)
(0 -0 1)
(-0.997642 0.0686272 0)
(0 0 1)
(-0.989461 0.1448 0)
(0 0 1)
(-0.975474 0.220116 0)
(0 0 1)
(-0.955761 0.294144 0)
(0 0 1)
(-0.930443 0.366438 0)
(0 0 1)
(-0.899659 0.436593 0)
(0 0 1)
(-0.8636 0.504178 0)
(0 0 1)
(-0.822471 0.568808 0)
(0 0 1)
(-0.776516 0.630097 0)
(0 0 1)
(-0.726005 0.687689 0)
(0 0 1)
(-0.671231 0.741249 0)
(0 0 1)
(-0.612518 0.790457 0)
(-0 0 1)
(-0.550216 0.835022 0)
(-0 0 1)
(-0.484678 0.874692 0)
(-0 0 1)
(-0.416302 0.909227 0)
(-0 0 1)
(-0.345479 0.938427 0)
(-0 0 1)
(-0.272628 0.96212 0)
(-0 0 1)
(-0.198176 0.980166 0)
(-0 0 1)
(-0.122572 0.99246 0)
(-0 0 1)
(-0.0462291 0.998931 0)
(-0 0 1)
(0.0303666 0.999539 0)
(0 0 1)
(0.10679 0.994282 0)
(0 0 1)
(0.182592 0.983189 0)
(0 0 1)
(0.257324 0.966325 0)
(0 0 1)
(0.330533 0.943794 0)
(0 0 1)
(0.401809 0.915723 0)
(0 0 1)
(0.470732 0.882276 0)
(0 0 1)
(0.536885 0.843655 0)
(0 0 1)
(0.599893 0.80008 0)
(0 0 1)
(0.714995 0.69913 -0)
(-4.86729e-16 -5.74305e-16 -1)
(0.659376 0.751813 -0)
(-4.86727e-16 -5.74293e-16 -1)
(0.599893 0.80008 -0)
(-4.86724e-16 -5.7429e-16 -1)
(0.536885 0.843655 -0)
(-4.86721e-16 -5.74289e-16 -1)
(0.470732 0.882276 -0)
(-4.86725e-16 -5.74296e-16 -1)
(0.401809 0.915723 -0)
(-4.86728e-16 -5.74301e-16 -1)
(0.330533 0.943794 -0)
(-4.86719e-16 -5.74292e-16 -1)
(0.257324 0.966325 -0)
(-4.86728e-16 -5.74281e-16 -1)
(0.182592 0.983189 -0)
(-4.86726e-16 -5.74295e-16 -1)
(0.10679 0.994282 -0)
(-4.86723e-16 -5.74296e-16 -1)
(0.0303666 0.999539 -0)
(-4.86724e-16 -5.74295e-16 -1)
(-0.0462291 0.998931 0)
(-4.86728e-16 -5.74303e-16 -1)
(-0.122572 0.99246 0)
(-4.86721e-16 -5.74296e-16 -1)
(-0.198176 0.980166 0)
(-4.86727e-16 -5.74291e-16 -1)
(-0.272628 0.96212 0)
(-4.86724e-16 -5.74295e-16 -1)
(-0.345479 0.938427 0)
(-4.86727e-16 -5.74289e-16 -1)
(-0.416302 0.909227 0)
(-4.86724e-16 -5.74293e-16 -1)
(-0.484678 0.874692 0)
(-4.86728e-16 -5.74288e-16 -1)
(-0.550216 0.835022 0)
(-4.86728e-16 -5.74287e-16 -1)
(-0.612518 0.790457 0)
(-4.86725e-16 -5.74296e-16 -1)
(-0.671231 0.741249 0)
(-4.86728e-16 -5.74289e-16 -1)
(-0.726005 0.687689 0)
(-4.86728e-16 -5.74291e-16 -1)
(-0.776516 0.630097 0)
(-4.86723e-16 -5.74296e-16 -1)
(-0.822471 0.568808 0)
(-4.86726e-16 -5.74291e-16 -1)
(-0.8636 0.504178 0)
(-4.86723e-16 -5.74296e-16 -1)
(-0.899659 0.436593 0)
(-4.86726e-16 -5.74292e-16 -1)
(-0.930443 0.366438 0)
(-4.86731e-16 -5.74293e-16 -1)
(-0.955761 0.294144 0)
(-4.86727e-16 -5.74293e-16 -1)
(-0.975474 0.220116 0)
(-4.86723e-16 -5.74294e-16 -1)
(-0.989461 0.1448 0)
(-4.86725e-16 -5.74294e-16 -1)
(-0.997642 0.0686272 0)
(-4.86727e-16 -5.74295e-16 -1)
(-0.999968 -0.00794003 0)
(-4.86725e-16 -5.74294e-16 -1)
(-0.996427 -0.0844637 0)
(-4.86726e-16 -5.74295e-16 -1)
(-0.987039 -0.160482 0)
(-4.86726e-16 -5.7429e-16 -1)
(-0.971854 -0.235582 0)
(-4.86724e-16 -5.74296e-16 -1)
(-0.950972 -0.309278 0)
(-4.86724e-16 -5.74293e-16 -1)
(-0.924507 -0.381166 0)
(-4.86722e-16 -5.7429e-16 -1)
(-0.892612 -0.450826 0)
(-4.86732e-16 -5.74305e-16 -1)
(-0.855486 -0.517826 0)
(-4.86718e-16 -5.74283e-16 -1)
(-0.813338 -0.581791 0)
(-4.86722e-16 -5.74294e-16 -1)
(-0.766412 -0.642349 0)
(-4.86722e-16 -5.74288e-16 -1)
(-0.714995 -0.69913 0)
(-4.86729e-16 -5.74305e-16 -1)
(-0.659376 -0.751813 0)
(-4.86727e-16 -5.74293e-16 -1)
(-0.599893 -0.80008 0)
(-4.86724e-16 -5.7429e-16 -1)
(-0.536885 -0.843655 0)
(-4.86721e-16 -5.74289e-16 -1)
(-0.470732 -0.882276 0)
(-4.86725e-16 -5.74296e-16 -1)
(-0.401809 -0.915723 0)
(-4.86728e-16 -5.74301e-16 -1)
(-0.330533 -0.943794 0)
(-4.86719e-16 -5.74292e-16 -1)
(-0.257324 -0.966325 0)
(-4.86728e-16 -5.74281e-16 -1)
(-0.182592 -0.983189 0)
(-4.86726e-16 -5.74295e-16 -1)
(-0.10679 -0.994282 0)
(-4.86723e-16 -5.74296e-16 -1)
(-0.0303666 -0.999539 0)
(-4.86724e-16 -5.74295e-16 -1)
(0.0462291 -0.998931 0)
(-4.86728e-16 -5.74303e-16 -1)
(0.122572 -0.99246 0)
(-4.86721e-16 -5.74296e-16 -1)
(0.198176 -0.980166 0)
(-4.86727e-16 -5.74291e-16 -1)
(0.272628 -0.96212 0)
(-4.86724e-16 -5.74295e-16 -1)
(0.345479 -0.938427 0)
(-4.86727e-16 -5.74289e-16 -1)
(0.416302 -0.909227 0)
(-4.86724e-16 -5.74293e-16 -1)
(0.484678 -0.874692 0)
(-4.86728e-16 -5.74288e-16 -1)
(0.550216 -0.835022 0)
(-4.86728e-16 -5.74287e-16 -1)
(0.612518 -0.790457 0)
(-4.86725e-16 -5.74296e-16 -1)
(0.671231 -0.741249 0)
(-4.86728e-16 -5.74289e-16 -1)
(0.726005 -0.687689 0)
(-4.86728e-16 -5.74291e-16 -1)
(0.776516 -0.630097 0)
(-4.86723e-16 -5.74296e-16 -1)
(0.822471 -0.568808 0)
(-4.86726e-16 -5.74291e-16 -1)
(0.8636 -0.504178 0)
(-4.86723e-16 -5.74296e-16 -1)
(0.899659 -0.436593 0)
(-4.86726e-16 -5.74292e-16 -1)
(0.930443 -0.366438 0)
(-4.86731e-16 -5.74293e-16 -1)
(0.955761 -0.294144 0)
(-4.86727e-16 -5.74293e-16 -1)
(0.975474 -0.220116 0)
(-4.86723e-16 -5.74294e-16 -1)
(0.989461 -0.1448 0)
(-4.86725e-16 -5.74294e-16 -1)
(0.997642 -0.0686272 0)
(-4.86727e-16 -5.74295e-16 -1)
(0.999968 0.00794003 -0)
(-4.86725e-16 -5.74294e-16 -1)
(0.996427 0.0844637 -0)
(-4.86726e-16 -5.74295e-16 -1)
(0.987039 0.160482 -0)
(-4.86726e-16 -5.7429e-16 -1)
(0.971854 0.235582 -0)
(-4.86724e-16 -5.74296e-16 -1)
(0.950972 0.309278 -0)
(-4.86724e-16 -5.74293e-16 -1)
(0.924507 0.381166 -0)
(-4.86722e-16 -5.7429e-16 -1)
(0.892612 0.450826 -0)
(-4.86732e-16 -5.74305e-16 -1)
(0.855486 0.517826 -0)
(-4.86718e-16 -5.74283e-16 -1)
(0.813338 0.581791 -0)
(-4.86722e-16 -5.74294e-16 -1)
(0.766412 0.642349 -0)
(-4.86722e-16 -5.74288e-16 -1)
(-0.714357 -0.699782 0.000604774)
(0 0 1)
(-0.660063 -0.75121 0.000605026)
(0 0 1)
(-0.602077 -0.798438 0.000604477)
(0 0 1)
(-0.540732 -0.841195 0.000602694)
(0 0 1)
(-0.476352 -0.879255 0.000600586)
(0 0 1)
(-0.409313 -0.912394 0.000598225)
(0 0 1)
(-0.33999 -0.940429 0.00059454)
(0 0 1)
(-0.268762 -0.963206 0.000590266)
(0 0 1)
(-0.196027 -0.980598 0.000585461)
(0 0 1)
(-0.122195 -0.992506 0.000579801)
(0 0 1)
(-0.0476846 -0.998862 0.000573618)
(0 0 1)
(0.0270919 -0.999633 0.000566761)
(0 0 1)
(0.101717 -0.994813 0.000558652)
(0 0 1)
(0.175772 -0.984431 0.000550076)
(0 0 1)
(0.248855 -0.968541 0.000541348)
(0 0 1)
(0.320531 -0.947238 0.000531146)
(0 0 1)
(0.39043 -0.920633 0.000520424)
(0 0 1)
(0.45813 -0.888885 0.00050955)
(0 0 1)
(0.523278 -0.852162 0.000497331)
(0 0 1)
(0.585501 -0.810672 0.000485116)
(0 0 1)
(0.644441 -0.764654 0.000471673)
(-0 0 1)
(0.699782 -0.714357 0.000457186)
(-0 0 1)
(0.75121 -0.660063 0.000442556)
(-0 0 1)
(0.798438 -0.602077 0.000427235)
(-0 0 1)
(0.841195 -0.540732 0.000411197)
(-0 0 1)
(0.879255 -0.476352 0.000394258)
(-0 0 1)
(0.912394 -0.409313 0.000376726)
(-0 0 1)
(0.940429 -0.33999 0.000358657)
(-0 0 1)
(0.963207 -0.268762 0.000339547)
(-0 0 1)
(0.980599 -0.196027 0.000319581)
(-0 0 1)
(0.992506 -0.122195 0.000299457)
(-0 0 1)
(0.998862 -0.0476846 0.000278234)
(-0 0 1)
(0.999633 0.0270919 0.000256805)
(-0 0 1)
(0.994813 0.101717 0.000234438)
(-0 0 1)
(0.984431 0.175772 0.000210539)
(-0 0 1)
(0.968541 0.248855 0.000186752)
(-0 0 1)
(0.947238 0.320531 0.000161947)
(-0 0 1)
(0.920633 0.39043 0.000137046)
(-0 0 1)
(0.888885 0.45813 0.000110653)
(-0 0 1)
(0.852162 0.523278 8.41823e-05)
(-0 0 1)
(0.810672 0.585501 5.69029e-05)
(-0 0 1)
(0.764654 0.644441 2.88298e-05)
(-0 0 1)
(0.714357 0.699782 0)
(-0 0 1)
(0.660064 0.75121 0)
(0 -0 1)
(0.602077 0.798438 2.87299e-05)
(0 -0 1)
(0.540732 0.841195 5.69367e-05)
(0 -0 1)
(0.476352 0.879255 8.42744e-05)
(0 -0 1)
(0.409313 0.912394 0.000110797)
(0 -0 1)
(0.33999 0.940429 0.000137039)
(0 -0 1)
(0.268762 0.963207 0.000162569)
(0 -0 1)
(0.196027 0.980599 0.000186625)
(0 -0 1)
(0.122195 0.992506 0.000210589)
(0 -0 1)
(0.0476846 0.998862 0.000234004)
(0 -0 1)
(-0.0270919 0.999633 0.000256882)
(0 -0 1)
(-0.101717 0.994813 0.000278208)
(0 -0 1)
(-0.175772 0.984431 0.000299414)
(0 -0 1)
(-0.248855 0.968541 0.000319334)
(0 -0 1)
(-0.320531 0.947238 0.000339303)
(0 -0 1)
(-0.39043 0.920633 0.000358409)
(0 -0 1)
(-0.45813 0.888885 0.000376579)
(0 -0 1)
(-0.523278 0.852162 0.000394004)
(0 -0 1)
(-0.585501 0.810672 0.000411028)
(0 -0 1)
(-0.644441 0.764654 0.000427493)
(0 -0 1)
(-0.699782 0.714357 0.000442699)
(0 -0 1)
(-0.75121 0.660063 0.00045724)
(0 -0 1)
(-0.798438 0.602077 0.000471515)
(0 0 1)
(-0.841195 0.540732 0.000484972)
(0 0 1)
(-0.879255 0.476352 0.000497577)
(0 0 1)
(-0.912394 0.409313 0.000509753)
(0 0 1)
(-0.940429 0.33999 0.000521133)
(0 0 1)
(-0.963207 0.268762 0.000531252)
(0 0 1)
(-0.980598 0.196027 0.000541144)
(0 0 1)
(-0.992506 0.122195 0.000550022)
(0 0 1)
(-0.998862 0.0476846 0.000558968)
(0 0 1)
(-0.999633 -0.0270919 0.00056677)
(0 0 1)
(-0.994813 -0.101717 0.000573436)
(0 0 1)
(-0.984431 -0.175772 0.000579513)
(0 0 1)
(-0.968541 -0.248855 0.000585218)
(0 0 1)
(-0.947238 -0.320531 0.00059023)
(0 0 1)
(-0.920633 -0.39043 0.000594255)
(0 0 1)
(-0.888885 -0.45813 0.000597881)
(0 0 1)
(-0.852162 -0.523278 0.000600709)
(0 0 1)
(-0.810672 -0.585501 0.00060298)
(0 0 1)
(-0.764654 -0.644441 0.000604259)
(0 0 1)
(-0.660063 -0.75121 -0.000605026)
(-4.86709e-16 -5.74285e-16 -1)
(-0.714357 -0.699782 -0.000604774)
(-4.86718e-16 -5.74276e-16 -1)
(-0.764654 -0.644441 -0.000604259)
(-4.8673e-16 -5.74305e-16 -1)
(-0.810672 -0.585501 -0.00060298)
(-4.8672e-16 -5.7429e-16 -1)
(-0.852162 -0.523278 -0.000600709)
(-4.86724e-16 -5.74292e-16 -1)
(-0.888885 -0.45813 -0.000597881)
(-4.86717e-16 -5.74284e-16 -1)
(-0.920633 -0.39043 -0.000594255)
(-4.86734e-16 -5.74304e-16 -1)
(-0.947238 -0.320531 -0.00059023)
(-4.86722e-16 -5.74291e-16 -1)
(-0.968541 -0.248855 -0.000585218)
(-4.86722e-16 -5.74295e-16 -1)
(-0.984431 -0.175772 -0.000579514)
(-4.86727e-16 -5.74291e-16 -1)
(-0.994813 -0.101717 -0.000573436)
(-4.86724e-16 -5.74293e-16 -1)
(-0.999633 -0.0270919 -0.00056677)
(-4.86726e-16 -5.74294e-16 -1)
(-0.998862 0.0476846 -0.000558968)
(-4.86725e-16 -5.74294e-16 -1)
(-0.992506 0.122195 -0.000550022)
(-4.86727e-16 -5.74295e-16 -1)
(-0.980598 0.196027 -0.000541145)
(-4.86725e-16 -5.74295e-16 -1)
(-0.963207 0.268762 -0.000531252)
(-4.86724e-16 -5.74292e-16 -1)
(-0.940429 0.33999 -0.000521133)
(-4.86727e-16 -5.74292e-16 -1)
(-0.912394 0.409313 -0.000509753)
(-4.86731e-16 -5.74293e-16 -1)
(-0.879255 0.476352 -0.000497577)
(-4.86725e-16 -5.74296e-16 -1)
(-0.841195 0.540732 -0.000484972)
(-4.86724e-16 -5.74291e-16 -1)
(-0.798438 0.602077 -0.000471515)
(-4.86726e-16 -5.74296e-16 -1)
(-0.75121 0.660063 -0.00045724)
(-4.86723e-16 -5.74291e-16 -1)
(-0.699782 0.714357 -0.000442699)
(-4.86728e-16 -5.74289e-16 -1)
(-0.644441 0.764654 -0.000427493)
(-4.86728e-16 -5.74296e-16 -1)
(-0.585501 0.810672 -0.000411028)
(-4.86725e-16 -5.74288e-16 -1)
(-0.523278 0.852162 -0.000394004)
(-4.86728e-16 -5.74288e-16 -1)
(-0.45813 0.888885 -0.000376579)
(-4.86729e-16 -5.74292e-16 -1)
(-0.39043 0.920633 -0.000358409)
(-4.86723e-16 -5.7429e-16 -1)
(-0.320531 0.947238 -0.000339303)
(-4.86728e-16 -5.74293e-16 -1)
(-0.248855 0.968541 -0.000319334)
(-4.86723e-16 -5.74292e-16 -1)
(-0.175772 0.984431 -0.000299414)
(-4.86728e-16 -5.74293e-16 -1)
(-0.101717 0.994813 -0.000278208)
(-4.86725e-16 -5.74304e-16 -1)
(-0.0270919 0.999633 -0.000256882)
(-4.86723e-16 -5.74295e-16 -1)
(0.0476846 0.998862 -0.000234004)
(-4.86724e-16 -5.74295e-16 -1)
(0.122195 0.992506 -0.000210589)
(-4.86723e-16 -5.74297e-16 -1)
(0.196027 0.980599 -0.000186625)
(-4.86719e-16 -5.74286e-16 -1)
(0.268762 0.963207 -0.000162569)
(-4.86731e-16 -5.74284e-16 -1)
(0.33999 0.940429 -0.00013704)
(-4.86728e-16 -5.743e-16 -1)
(0.409313 0.912394 -0.000110797)
(-4.86723e-16 -5.74297e-16 -1)
(0.476352 0.879255 -8.42744e-05)
(-4.86719e-16 -5.74291e-16 -1)
(0.540732 0.841195 -5.69368e-05)
(-4.86723e-16 -5.74291e-16 -1)
(0.602077 0.798438 -2.87299e-05)
(-4.86727e-16 -5.74292e-16 -1)
(0.660064 0.75121 0)
(-4.86709e-16 -5.74285e-16 -1)
(0.714357 0.699782 -0)
(-4.86718e-16 -5.74276e-16 -1)
(0.764654 0.644441 -2.88298e-05)
(-4.8673e-16 -5.74305e-16 -1)
(0.810672 0.585501 -5.6903e-05)
(-4.8672e-16 -5.7429e-16 -1)
(0.852162 0.523278 -8.41823e-05)
(-4.86724e-16 -5.74292e-16 -1)
(0.888885 0.45813 -0.000110653)
(-4.86717e-16 -5.74284e-16 -1)
(0.920633 0.39043 -0.000137046)
(-4.86734e-16 -5.74304e-16 -1)
(0.947238 0.320531 -0.000161947)
(-4.86722e-16 -5.74291e-16 -1)
(0.968541 0.248855 -0.000186752)
(-4.86722e-16 -5.74295e-16 -1)
(0.984431 0.175772 -0.000210539)
(-4.86727e-16 -5.74291e-16 -1)
(0.994813 0.101717 -0.000234438)
(-4.86724e-16 -5.74293e-16 -1)
(0.999633 0.0270919 -0.000256805)
(-4.86726e-16 -5.74294e-16 -1)
(0.998862 -0.0476846 -0.000278234)
(-4.86725e-16 -5.74294e-16 -1)
(0.992506 -0.122195 -0.000299457)
(-4.86727e-16 -5.74295e-16 -1)
(0.980599 -0.196027 -0.000319581)
(-4.86725e-16 -5.74295e-16 -1)
(0.963207 -0.268762 -0.000339547)
(-4.86724e-16 -5.74292e-16 -1)
(0.940429 -0.33999 -0.000358657)
(-4.86727e-16 -5.74292e-16 -1)
(0.912394 -0.409313 -0.000376726)
(-4.86731e-16 -5.74293e-16 -1)
(0.879255 -0.476352 -0.000394258)
(-4.86725e-16 -5.74296e-16 -1)
(0.841195 -0.540732 -0.000411197)
(-4.86724e-16 -5.74291e-16 -1)
(0.798438 -0.602077 -0.000427235)
(-4.86726e-16 -5.74296e-16 -1)
(0.75121 -0.660063 -0.000442556)
(-4.86723e-16 -5.74291e-16 -1)
(0.699782 -0.714357 -0.000457186)
(-4.86728e-16 -5.74289e-16 -1)
(0.644441 -0.764654 -0.000471673)
(-4.86728e-16 -5.74296e-16 -1)
(0.585501 -0.810672 -0.000485117)
(-4.86725e-16 -5.74288e-16 -1)
(0.523278 -0.852162 -0.000497331)
(-4.86728e-16 -5.74288e-16 -1)
(0.45813 -0.888885 -0.00050955)
(-4.86729e-16 -5.74292e-16 -1)
(0.39043 -0.920633 -0.000520424)
(-4.86723e-16 -5.7429e-16 -1)
(0.320531 -0.947238 -0.000531146)
(-4.86728e-16 -5.74293e-16 -1)
(0.248855 -0.968541 -0.000541348)
(-4.86723e-16 -5.74292e-16 -1)