/*--------------------------------*- C++ -*----------------------------------*\
  =========                 |
  \\      /  F ield         | OpenFOAM: The Open Source CFD Toolbox
   \\    /   O peration     | Website:  https://openfoam.org
    \\  /    A nd           | Version:  7
     \\/     M anipulation  |
\*---------------------------------------------------------------------------*/
FoamFile
{
    version     2.0;
    format      ascii;
    class       dictionary;
    location    "system";
    object      fvSolution;
}
// * * * * * * * * * * * * * * * * * * * * * * * * * * * * * * * * * * * * * //

solvers
{
    p
    {
        solver          GAMG;
        tolerance       1e-08;
        relTol          0.05;
        smoother        GaussSeidel;
        nCellsInCoarsestLevel 20;
    }

    U
    {
        solver          smoothSolver;
        smoother        GaussSeidel;
        nSweeps         2;
        tolerance       1e-07;
        relTol          0.1;
    }

    k
    {
        solver          smoothSolver;
        smoother        GaussSeidel;
        nSweeps         2;
        tolerance       1e-07;
        relTol          0.1;
    }

    omega
    {
        solver          smoothSolver;
        smoother        GaussSeidel;
        nSweeps         2;
        tolerance       1e-07;
        relTol          0.1;
    }
}


/*The following values are copied from --> https://github.com/UnnamedMoose/BasicOpenFOAMProgrammingTutorials/blob/master/OFtutorial14_SIMPLE_algorithm/testCase/system/fvSolution */

//relaction factor
alpha 0.01;

// index of cell contianing reference preassure
pRefCell 99;

// reference reassure value
pRefValue 0;

/* THE PART BELOW CAN LATER BE DELETED IF THE CASE WORK THE PART BELOW CAN LATER BE DELETED IF THE CASE WORKS*/

//SIMPLE
//{
//    nNonOrthogonalCorrectors 0;
//    pRefCell        0;
//    pRefValue       0;
//    residualControl
//    {
//    p                    1e-2;
//    U                    1e-3;
//    "(k|omega)"          1e-3;
//    }
//
//}

//relaxationFactors
//{
//    fields
//    {
//        p               0.15;
//    }
//    equations
//    {
//        U               0.3;
//        k               0.3;
//        omega           0.3;
//    }
//}


// ************************************************************************* //
