/*--------------------------------*- C++ -*----------------------------------*\
  =========                 |
  \\      /  F ield         | OpenFOAM: The Open Source CFD Toolbox
   \\    /   O peration     | Website:  https://openfoam.org
    \\  /    A nd           | Version:  8
     \\/     M anipulation  |
\*---------------------------------------------------------------------------*/
FoamFile
{
    version     2.0;
    format      ascii;
    class       featureEdgeMesh;
    location    "constant/triSurface";
    object      stirrer.eMesh;
}
// * * * * * * * * * * * * * * * * * * * * * * * * * * * * * * * * * * * * * //


// points:

135
(
(-0.00701427 0.000223732 0.000910833)
(-0.00697486 -0.00077549 0.000910833)
(-0.00697486 -0.00077549 0.00391083)
(-0.00701427 0.000223732 0.00391083)
(-0.00195475 0.0067401 0.000910833)
(-0.00289288 0.00639384 0.000910833)
(-0.00289288 0.00639384 0.00391083)
(-0.00195475 0.0067401 0.00391083)
(0.00580617 0.00394188 0.000910833)
(0.00518695 0.0047271 0.000910833)
(0.00518695 0.0047271 0.00391083)
(0.00580617 0.00394188 0.00391083)
(0.00554316 -0.00430389 0.000910833)
(0.0060986 -0.00347233 0.000910833)
(0.0060986 -0.00347233 0.00391083)
(0.00554316 -0.00430389 0.00391083)
(-0.00238031 -0.00660183 0.000910833)
(-0.00141781 -0.00687312 0.000910833)
(-0.00141781 -0.00687312 0.00391083)
(-0.00238031 -0.00660183 0.00391083)
(-0.00195469 0.000423292 0.000910833)
(-0.00191528 -0.000575931 0.000910833)
(-0.00191528 -0.000575931 0.00391083)
(-0.00195469 0.000423292 0.00391083)
(-0.000201459 0.00198983 0.000910833)
(-0.0011396 0.00164357 0.000910833)
(-0.0011396 0.00164357 0.00391083)
(-0.000201459 0.00198983 0.00391083)
(0.00183018 0.000806489 0.000910833)
(0.00121097 0.00159171 0.000910833)
(0.00121097 0.00159171 0.00391083)
(0.00183018 0.000806489 0.00391083)
(0.00133257 -0.00149139 0.000910833)
(0.00188802 -0.000659836 0.000910833)
(0.00188802 -0.000659836 0.00391083)
(0.00133257 -0.00149139 0.00391083)
(-0.00100661 -0.00172822 0.000910833)
(-4.41114e-05 -0.00199951 0.000910833)
(-4.41114e-05 -0.00199951 0.00391083)
(-0.00100661 -0.00172822 0.00391083)
(-0.00189529 -0.000638657 0.007)
(-0.00195574 -0.000418448 0.007)
(-0.00199069 -0.000192783 0.007)
(-0.00199969 3.53949e-05 0.007)
(-0.00198262 0.000263111 0.007)
(-0.0019397 0.000487398 0.007)
(-0.0018715 0.00070533 0.007)
(-0.0017789 0.000914067 0.007)
(-0.00166311 0.00111089 0.007)
(-0.00152564 0.00129323 0.007)
(-0.00136827 0.00145871 0.007)
(-0.00119307 0.00160517 0.007)
(-0.00100232 0.00173071 0.007)
(-0.000798504 0.00183368 0.007)
(-0.000584275 0.00191275 0.007)
(-0.000362429 0.00196689 0.007)
(-0.000135858 0.00199538 0.007)
(9.24836e-05 0.00199786 0.007)
(0.00031962 0.0019743 0.007)
(0.000542589 0.00192499 0.007)
(0.000758485 0.00185059 0.007)
(0.000964493 0.00175207 0.007)
(0.00115793 0.00163071 0.007)
(0.00133627 0.00148808 0.007)
(0.00149718 0.00132606 0.007)
(0.00163859 0.00114675 0.007)
(0.00175862 0.000952492 0.007)
(0.00185574 0.000745815 0.007)
(0.00192866 0.000529416 0.007)
(0.00197644 0.000306114 0.007)
(0.00199845 7.88226e-05 0.007)
(0.0019944 -0.000149497 0.007)
(0.00196436 -0.000375868 0.007)
(0.00190871 -0.000597338 0.007)
(0.00182818 -0.000811021 0.007)
(0.00172381 -0.00101413 0.007)
(0.00159698 -0.00120402 0.007)
(0.00144932 -0.00137822 0.007)
(0.00128277 -0.00153444 0.007)
(0.00109949 -0.00167066 0.007)
(0.000901884 -0.00178511 0.007)
(0.000692518 -0.00187628 0.007)
(0.000474125 -0.00194299 0.007)
(0.000249551 -0.00198437 0.007)
(2.17227e-05 -0.00199988 0.007)
(-0.000206388 -0.00198932 0.007)
(-0.000431809 -0.00195283 0.007)
(-0.0006516 -0.00189088 0.007)
(-0.000862896 -0.00180428 0.007)
(-0.00106294 -0.00169415 0.007)
(-0.00124913 -0.00156194 0.007)
(-0.00141904 -0.00140937 0.007)
(-0.00157045 -0.00123843 0.007)
(-0.00170138 -0.00105134 0.007)
(-0.00181013 -0.000850541 0.007)
(-0.00198743 0.000223903 0.000910833)
(-0.00199988 2.22287e-05 0.000910833)
(-0.00199191 -0.000179672 0.000910833)
(-0.00196362 -0.00037974 0.000910833)
(-0.00196362 -0.00037974 0.00391083)
(-0.00199191 -0.000179672 0.00391083)
(-0.00199988 2.22287e-05 0.00391083)
(-0.00198743 0.000223903 0.00391083)
(-0.000401205 0.00195935 0.000910833)
(-0.000596855 0.00190886 0.000910833)
(-0.000786414 0.0018389 0.000910833)
(-0.000967945 0.00175017 0.000910833)
(-0.000967945 0.00175017 0.00391083)
(-0.000786414 0.0018389 0.00391083)
(-0.000596855 0.00190886 0.00391083)
(-0.000401205 0.00195935 0.00391083)
(0.00173947 0.000987039 0.000910833)
(0.001631 0.00115751 0.000910833)
(0.00150588 0.00131617 0.000910833)
(0.0013654 0.0014614 0.000910833)
(0.0013654 0.0014614 0.00391083)
(0.00150588 0.00131617 0.00391083)
(0.001631 0.00115751 0.00391083)
(0.00173947 0.000987039 0.00391083)
(0.00147626 -0.00134932 0.000910833)
(0.00160487 -0.00119348 0.000910833)
(0.0017171 -0.00102546 0.000910833)
(0.00181181 -0.00084697 0.000910833)
(0.00181181 -0.00084697 0.00391083)
(0.0017171 -0.00102546 0.00391083)
(0.00160487 -0.00119348 0.00391083)
(0.00147626 -0.00134932 0.00391083)
(-0.000827093 -0.00182097 0.000910833)
(-0.000639136 -0.00189513 0.000910833)
(-0.000444656 -0.00194994 0.000910833)
(-0.000245637 -0.00198486 0.000910833)
(-0.000245637 -0.00198486 0.00391083)
(-0.000444656 -0.00194994 0.00391083)
(-0.000639136 -0.00189513 0.00391083)
(-0.000827093 -0.00182097 0.00391083)
)


// edges:

155
(
(0 20)
(1 0)
(21 1)
(22 2)
(2 1)
(3 2)
(23 3)
(3 0)
(4 24)
(5 4)
(25 5)
(26 6)
(6 5)
(7 6)
(27 7)
(7 4)
(8 28)
(9 8)
(29 9)
(30 10)
(10 9)
(11 10)
(31 11)
(11 8)
(12 32)
(13 12)
(33 13)
(34 14)
(14 13)
(15 14)
(35 15)
(15 12)
(16 36)
(17 16)
(37 17)
(38 18)
(18 17)
(19 18)
(39 19)
(19 16)
(40 41)
(41 42)
(42 43)
(43 44)
(44 45)
(45 46)
(46 47)
(47 48)
(48 49)
(49 50)
(50 51)
(51 52)
(52 53)
(53 54)
(54 55)
(55 56)
(56 57)
(57 58)
(58 59)
(59 60)
(60 61)
(61 62)
(62 63)
(63 64)
(64 65)
(65 66)
(66 67)
(67 68)
(68 69)
(69 70)
(70 71)
(71 72)
(72 73)
(73 74)
(74 75)
(75 76)
(76 77)
(77 78)
(78 79)
(79 80)
(80 81)
(81 82)
(82 83)
(83 84)
(84 85)
(85 86)
(86 87)
(87 88)
(88 89)
(89 90)
(90 91)
(91 92)
(92 93)
(93 94)
(94 40)
(20 95)
(95 96)
(96 97)
(97 98)
(98 21)
(21 22)
(22 99)
(99 100)
(100 101)
(101 102)
(102 23)
(23 20)
(24 103)
(103 104)
(104 105)
(105 106)
(106 25)
(25 26)
(26 107)
(107 108)
(108 109)
(109 110)
(110 27)
(27 24)
(28 111)
(111 112)
(112 113)
(113 114)
(114 29)
(29 30)
(30 115)
(115 116)
(116 117)
(117 118)
(118 31)
(31 28)
(32 119)
(119 120)
(120 121)
(121 122)
(122 33)
(33 34)
(34 123)
(123 124)
(124 125)
(125 126)
(126 35)
(35 32)
(36 127)
(127 128)
(128 129)
(129 130)
(130 37)
(37 38)
(38 131)
(131 132)
(132 133)
(133 134)
(134 39)
(39 36)
)

// * * * * * * * * * * * * * * * * * * * * * * * * * * * * * * * * * * * * * //


// ************************************************************************* //
