/*--------------------------------*- C++ -*----------------------------------*\
  =========                 |
  \\      /  F ield         | OpenFOAM: The Open Source CFD Toolbox
   \\    /   O peration     | Website:  https://openfoam.org
    \\  /    A nd           | Version:  8
     \\/     M anipulation  |
\*---------------------------------------------------------------------------*/
FoamFile
{
    version     2.0;
    format      ascii;
    class       featureEdgeMesh;
    location    "constant/triSurface";
    object      bottom.eMesh;
}
// * * * * * * * * * * * * * * * * * * * * * * * * * * * * * * * * * * * * * //


// points:

205
(
(-0.00963901 -0.011493 2.25514e-17)
(-0.0103154 -0.0108901 2.25514e-17)
(-0.0109541 -0.0102474 2.25514e-17)
(-0.0115528 -0.00956728 2.25514e-17)
(-0.0121094 -0.00885229 2.25514e-17)
(-0.0126218 -0.00810499 2.25514e-17)
(-0.0130881 -0.00732812 2.25514e-17)
(-0.0135067 -0.00652451 2.08167e-17)
(-0.013876 -0.00569709 2.08167e-17)
(-0.0141947 -0.00484888 2.08167e-17)
(-0.0144615 -0.00398299 2.08167e-17)
(-0.0146756 -0.00310255 1.9082e-17)
(-0.0148362 -0.0022108 1.9082e-17)
(-0.0149426 -0.00131098 1.9082e-17)
(-0.0149945 -0.000406377 1.9082e-17)
(-0.0149917 0.000499709 1.9082e-17)
(-0.0149341 0.00140397 1.73472e-17)
(-0.0148221 0.00230311 1.73472e-17)
(-0.014656 0.00319385 1.56125e-17)
(-0.0144365 0.00407293 1.56125e-17)
(-0.0141642 0.00493715 1.38778e-17)
(-0.0138403 0.00578336 1.38778e-17)
(-0.0134658 0.00660846 1.21431e-17)
(-0.0130422 0.00740945 1.21431e-17)
(-0.0125711 0.0081834 1.21431e-17)
(-0.012054 0.00892749 1.04083e-17)
(-0.011493 0.00963901 1.04083e-17)
(-0.0108901 0.0103154 1.04083e-17)
(-0.0102474 0.0109541 8.67362e-18)
(-0.00956728 0.0115528 8.67362e-18)
(-0.00885229 0.0121094 6.93889e-18)
(-0.00810499 0.0126218 6.93889e-18)
(-0.00732812 0.0130881 6.93889e-18)
(-0.00652451 0.0135067 5.20417e-18)
(-0.00569709 0.013876 5.20417e-18)
(-0.00484888 0.0141947 5.20417e-18)
(-0.00398299 0.0144615 5.20417e-18)
(-0.00310255 0.0146756 3.46945e-18)
(-0.0022108 0.0148362 3.46945e-18)
(-0.00131098 0.0149426 3.46945e-18)
(-0.000406377 0.0149945 3.46945e-18)
(0.000499709 0.0149917 1.73472e-18)
(0.00140397 0.0149341 1.73472e-18)
(0.00230311 0.0148221 1.73472e-18)
(0.00319385 0.014656 0)
(0.00407293 0.0144365 0)
(0.00493715 0.0141642 0)
(0.00578336 0.0138403 0)
(0.00660846 0.0134658 0)
(0.00740945 0.0130422 0)
(0.0081834 0.0125711 0)
(0.00892749 0.012054 0)
(0.00963901 0.011493 0)
(0.0103154 0.0108901 0)
(0.0109541 0.0102474 0)
(0.0115528 0.00956728 0)
(0.0121094 0.00885229 0)
(0.0126218 0.00810499 0)
(0.0130881 0.00732812 0)
(0.0135067 0.00652451 0)
(0.013876 0.00569709 0)
(0.0141947 0.00484888 0)
(0.0144615 0.00398299 0)
(0.0146756 0.00310255 1.73472e-18)
(0.0148362 0.0022108 1.73472e-18)
(0.0149426 0.00131098 1.73472e-18)
(0.0149945 0.000406377 3.46945e-18)
(0.0149917 -0.000499709 3.46945e-18)
(0.0149341 -0.00140397 3.46945e-18)
(0.0148221 -0.00230311 3.46945e-18)
(0.014656 -0.00319385 5.20417e-18)
(0.0144365 -0.00407293 5.20417e-18)
(0.0141642 -0.00493715 6.93889e-18)
(0.0138403 -0.00578336 6.93889e-18)
(0.0134658 -0.00660846 8.67362e-18)
(0.0130422 -0.00740945 1.04083e-17)
(0.0125711 -0.0081834 1.04083e-17)
(0.012054 -0.00892749 1.04083e-17)
(0.011493 -0.00963901 1.04083e-17)
(0.0108901 -0.0103154 1.21431e-17)
(0.0102474 -0.0109541 1.21431e-17)
(0.00956728 -0.0115528 1.21431e-17)
(0.00885229 -0.0121094 1.38778e-17)
(0.00810499 -0.0126218 1.38778e-17)
(0.00732812 -0.0130881 1.56125e-17)
(0.00652451 -0.0135067 1.56125e-17)
(0.00569709 -0.013876 1.56125e-17)
(0.00484888 -0.0141947 1.56125e-17)
(0.00398299 -0.0144615 1.56125e-17)
(0.00310255 -0.0146756 1.73472e-17)
(0.0022108 -0.0148362 1.73472e-17)
(0.00131098 -0.0149426 1.9082e-17)
(0.000406377 -0.0149945 1.9082e-17)
(-0.000499709 -0.0149917 1.9082e-17)
(-0.00140397 -0.0149341 1.9082e-17)
(-0.00230311 -0.0148221 1.9082e-17)
(-0.00319385 -0.014656 2.08167e-17)
(-0.00407293 -0.0144365 2.08167e-17)
(-0.00493715 -0.0141642 2.08167e-17)
(-0.00578336 -0.0138403 2.08167e-17)
(-0.00660846 -0.0134658 2.25514e-17)
(-0.00740945 -0.0130422 2.25514e-17)
(-0.0081834 -0.0125711 2.25514e-17)
(-0.00892749 -0.012054 2.25514e-17)
(-0.00897715 -0.0107429 2.08167e-17)
(-0.00962767 -0.0101641 2.08167e-17)
(-0.0082919 -0.0112803 2.08167e-17)
(-0.00757457 -0.011774 2.08167e-17)
(-0.00682793 -0.0122221 2.08167e-17)
(-0.00605488 -0.0126229 2.08167e-17)
(-0.00525841 -0.0129749 2.08167e-17)
(-0.00444159 -0.0132768 2.08167e-17)
(-0.00360758 -0.0135272 1.9082e-17)
(-0.00275962 -0.0137253 1.9082e-17)
(-0.00190099 -0.0138703 1.9082e-17)
(-0.00103499 -0.0139617 1.9082e-17)
(-0.000165 -0.013999 1.9082e-17)
(0.000705634 -0.0139822 1.9082e-17)
(0.00157354 -0.0139113 1.73472e-17)
(0.00243535 -0.0137865 1.73472e-17)
(0.00328775 -0.0136085 1.56125e-17)
(0.00412742 -0.0133778 1.56125e-17)
(0.00495113 -0.0130953 1.56125e-17)
(0.00575568 -0.0127621 1.56125e-17)
(0.00653796 -0.0123796 1.38778e-17)
(0.00729495 -0.0119492 1.38778e-17)
(0.00802372 -0.0114726 1.38778e-17)
(0.00872144 -0.0109515 1.21431e-17)
(0.00938543 -0.0103881 1.21431e-17)
(0.0100131 -0.00978457 1.21431e-17)
(0.010602 -0.00914313 1.21431e-17)
(0.01115 -0.00846632 1.04083e-17)
(0.0116547 -0.00775676 1.04083e-17)
(0.0121144 -0.00701718 1.04083e-17)
(0.0125272 -0.00625046 8.67362e-18)
(0.0128916 -0.00545955 6.93889e-18)
(0.0132061 -0.00464753 6.93889e-18)
(0.0134695 -0.00381752 6.93889e-18)
(0.0136807 -0.00297274 5.20417e-18)
(0.0138391 -0.00211647 5.20417e-18)
(0.0139439 -0.001252 3.46945e-18)
(0.0139948 -0.00038269 3.46945e-18)
(0.0139915 0.0004881 3.46945e-18)
(0.0139341 0.001357 3.46945e-18)
(0.0138228 0.00222065 1.73472e-18)
(0.013658 0.00307571 1.73472e-18)
(0.0134403 0.00391888 1.73472e-18)
(0.0131707 0.00474687 1.73472e-18)
(0.0128501 0.00555651 0)
(0.0124798 0.00634465 0)
(0.0120612 0.00710824 0)
(0.011596 0.00784433 0)
(0.0110859 0.00855007 0)
(0.0105329 0.00922274 0)
(0.00993911 0.00985972 0)
(0.00930691 0.0104586 0)
(0.0086387 0.0110169 0)
(0.00793707 0.0115327 0)
(0.00720473 0.0120038 0)
(0.00644452 0.0124285 0)
(0.00565938 0.0128051 0)
(0.00485234 0.0131322 0)
(0.00402653 0.0134085 1.73472e-18)
(0.00318514 0.0136329 1.73472e-18)
(0.00233143 0.0138045 1.73472e-18)
(0.0014687 0.0139228 1.73472e-18)
(0.000600288 0.0139871 3.46945e-18)
(-0.000270448 0.0139974 3.46945e-18)
(-0.00114014 0.0139535 3.46945e-18)
(-0.00200542 0.0138556 3.46945e-18)
(-0.00286294 0.0137041 5.20417e-18)
(-0.00370938 0.0134997 5.20417e-18)
(-0.00454147 0.0132429 6.93889e-18)
(-0.005356 0.012935 6.93889e-18)
(-0.0061498 0.012577 6.93889e-18)
(-0.0069198 0.0121703 6.93889e-18)
(-0.00766304 0.0117166 6.93889e-18)
(-0.00837663 0.0112175 6.93889e-18)
(-0.00905782 0.010675 8.67362e-18)
(-0.00970396 0.0100912 1.04083e-17)
(-0.0103126 0.00946843 1.04083e-17)
(-0.0108813 0.00880899 1.04083e-17)
(-0.0114079 0.00811546 1.04083e-17)
(-0.0118903 0.00739054 1.21431e-17)
(-0.0123268 0.00663703 1.21431e-17)
(-0.0127156 0.00585784 1.38778e-17)
(-0.0130552 0.00505598 1.56125e-17)
(-0.0133442 0.00423457 1.56125e-17)
(-0.0135817 0.00339677 1.56125e-17)
(-0.0137666 0.00254583 1.56125e-17)
(-0.0138982 0.00168505 1.73472e-17)
(-0.0139761 0.00081774 1.73472e-17)
(-0.0139999 -5.27306e-05 1.9082e-17)
(-0.0139695 -0.000922997 1.9082e-17)
(-0.0138851 -0.00178969 1.9082e-17)
(-0.013747 -0.00264947 1.9082e-17)
(-0.0135557 -0.00349899 1.9082e-17)
(-0.0133119 -0.00433497 1.9082e-17)
(-0.0130167 -0.00515418 2.08167e-17)
(-0.0126711 -0.00595346 2.08167e-17)
(-0.0122765 -0.0067297 2.08167e-17)
(-0.0118343 -0.0074799 2.08167e-17)
(-0.0113464 -0.00820117 2.08167e-17)
(-0.0108146 -0.00889071 2.08167e-17)
(-0.0102409 -0.00954585 2.08167e-17)
)


// edges:

205
(
(0 1)
(1 2)
(2 3)
(3 4)
(4 5)
(5 6)
(6 7)
(7 8)
(8 9)
(9 10)
(10 11)
(11 12)
(12 13)
(13 14)
(14 15)
(15 16)
(16 17)
(17 18)
(18 19)
(19 20)
(20 21)
(21 22)
(22 23)
(23 24)
(24 25)
(25 26)
(26 27)
(27 28)
(28 29)
(29 30)
(30 31)
(31 32)
(32 33)
(33 34)
(34 35)
(35 36)
(36 37)
(37 38)
(38 39)
(39 40)
(40 41)
(41 42)
(42 43)
(43 44)
(44 45)
(45 46)
(46 47)
(47 48)
(48 49)
(49 50)
(50 51)
(51 52)
(52 53)
(53 54)
(54 55)
(55 56)
(56 57)
(57 58)
(58 59)
(59 60)
(60 61)
(61 62)
(62 63)
(63 64)
(64 65)
(65 66)
(66 67)
(67 68)
(68 69)
(69 70)
(70 71)
(71 72)
(72 73)
(73 74)
(74 75)
(75 76)
(76 77)
(77 78)
(78 79)
(79 80)
(80 81)
(81 82)
(82 83)
(83 84)
(84 85)
(85 86)
(86 87)
(87 88)
(88 89)
(89 90)
(90 91)
(91 92)
(92 93)
(93 94)
(94 95)
(95 96)
(96 97)
(97 98)
(98 99)
(99 100)
(100 101)
(101 102)
(102 103)
(103 0)
(104 105)
(106 104)
(107 106)
(108 107)
(109 108)
(110 109)
(111 110)
(112 111)
(113 112)
(114 113)
(115 114)
(116 115)
(117 116)
(118 117)
(119 118)
(120 119)
(121 120)
(122 121)
(123 122)
(124 123)
(125 124)
(126 125)
(127 126)
(128 127)
(129 128)
(130 129)
(131 130)
(132 131)
(133 132)
(134 133)
(135 134)
(136 135)
(137 136)
(138 137)
(139 138)
(140 139)
(141 140)
(142 141)
(143 142)
(144 143)
(145 144)
(146 145)
(147 146)
(148 147)
(149 148)
(150 149)
(151 150)
(152 151)
(153 152)
(154 153)
(155 154)
(156 155)
(157 156)
(158 157)
(159 158)
(160 159)
(161 160)
(162 161)
(163 162)
(164 163)
(165 164)
(166 165)
(167 166)
(168 167)
(169 168)
(170 169)
(171 170)
(172 171)
(173 172)
(174 173)
(175 174)
(176 175)
(177 176)
(178 177)
(179 178)
(180 179)
(181 180)
(182 181)
(183 182)
(184 183)
(185 184)
(186 185)
(187 186)
(188 187)
(189 188)
(190 189)
(191 190)
(192 191)
(193 192)
(194 193)
(195 194)
(196 195)
(197 196)
(198 197)
(199 198)
(200 199)
(201 200)
(202 201)
(203 202)
(204 203)
(105 204)
)

// * * * * * * * * * * * * * * * * * * * * * * * * * * * * * * * * * * * * * //


// ************************************************************************* //
