/*--------------------------------*- C++ -*----------------------------------*\
  =========                 |
  \\      /  F ield         | OpenFOAM: The Open Source CFD Toolbox
   \\    /   O peration     | Website:  https://openfoam.org
    \\  /    A nd           | Version:  8
     \\/     M anipulation  |
\*---------------------------------------------------------------------------*/
FoamFile
{
    version     2.0;
    format      ascii;
    class       featureEdgeMesh;
    location    "constant/triSurface";
    object      stirrerholder.eMesh;
}
// * * * * * * * * * * * * * * * * * * * * * * * * * * * * * * * * * * * * * //


// points:

74
(
(-0.00182922 -0.000808668 0.052)
(-0.00193958 -0.000487896 0.052)
(-0.00166625 -0.00110618 0.052)
(-0.00145533 -0.00137186 0.052)
(-0.00120255 -0.00159808 0.052)
(-0.000915179 -0.00177833 0.052)
(-0.000601476 -0.00190741 0.052)
(-0.00027047 -0.00198163 0.052)
(6.83172e-05 -0.00199883 0.052)
(0.000405139 -0.00195854 0.052)
(0.000730306 -0.00186189 0.052)
(0.00103446 -0.00171169 0.052)
(0.00130886 -0.00151225 0.052)
(0.0015456 -0.00126929 0.052)
(0.00173788 -0.000989829 0.052)
(0.00188017 -0.000681887 0.052)
(0.00196836 -0.000354329 0.052)
(0.00199993 -1.65773e-05 0.052)
(0.00197397 0.000321651 0.052)
(0.00189121 0.000650626 0.052)
(0.00175405 0.000960884 0.052)
(0.00156643 0.0012435 0.052)
(0.00133375 0.00149034 0.052)
(0.0010627 0.00169431 0.052)
(0.000761069 0.00184953 0.052)
(0.000437549 0.00195155 0.052)
(0.000101442 0.00199743 0.052)
(-0.000237584 0.00198584 0.052)
(-0.000569775 0.00191712 0.052)
(-0.000885574 0.00179325 0.052)
(-0.0011759 0.0016178 0.052)
(-0.00143239 0.0013958 0.052)
(-0.00164768 0.00113365 0.052)
(-0.00181557 0.00083888 0.052)
(-0.00193122 0.000519981 0.052)
(-0.00199132 0.000186124 0.052)
(-0.00199413 -0.000153089 0.052)
(-0.00182922 -0.000808668 0.007)
(-0.00166625 -0.00110618 0.007)
(-0.00193958 -0.000487896 0.007)
(-0.00199413 -0.000153089 0.007)
(-0.00199132 0.000186124 0.007)
(-0.00193122 0.000519981 0.007)
(-0.00181557 0.00083888 0.007)
(-0.00164768 0.00113365 0.007)
(-0.00143239 0.0013958 0.007)
(-0.0011759 0.0016178 0.007)
(-0.000885574 0.00179325 0.007)
(-0.000569775 0.00191712 0.007)
(-0.000237584 0.00198584 0.007)
(0.000101442 0.00199743 0.007)
(0.000437549 0.00195155 0.007)
(0.000761069 0.00184953 0.007)
(0.0010627 0.00169431 0.007)
(0.00133375 0.00149034 0.007)
(0.00156643 0.0012435 0.007)
(0.00175405 0.000960884 0.007)
(0.00189121 0.000650626 0.007)
(0.00197397 0.000321651 0.007)
(0.00199993 -1.65773e-05 0.007)
(0.00196836 -0.000354329 0.007)
(0.00188017 -0.000681887 0.007)
(0.00173788 -0.000989829 0.007)
(0.0015456 -0.00126929 0.007)
(0.00130886 -0.00151225 0.007)
(0.00103446 -0.00171169 0.007)
(0.000730306 -0.00186189 0.007)
(0.000405139 -0.00195854 0.007)
(6.83172e-05 -0.00199883 0.007)
(-0.00027047 -0.00198163 0.007)
(-0.000601476 -0.00190741 0.007)
(-0.000915179 -0.00177833 0.007)
(-0.00120255 -0.00159808 0.007)
(-0.00145533 -0.00137186 0.007)
)


// edges:

74
(
(0 1)
(2 0)
(3 2)
(4 3)
(5 4)
(6 5)
(7 6)
(8 7)
(9 8)
(10 9)
(11 10)
(12 11)
(13 12)
(14 13)
(15 14)
(16 15)
(17 16)
(18 17)
(19 18)
(20 19)
(21 20)
(22 21)
(23 22)
(24 23)
(25 24)
(26 25)
(27 26)
(28 27)
(29 28)
(30 29)
(31 30)
(32 31)
(33 32)
(34 33)
(35 34)
(36 35)
(1 36)
(37 38)
(39 37)
(40 39)
(41 40)
(42 41)
(43 42)
(44 43)
(45 44)
(46 45)
(47 46)
(48 47)
(49 48)
(50 49)
(51 50)
(52 51)
(53 52)
(54 53)
(55 54)
(56 55)
(57 56)
(58 57)
(59 58)
(60 59)
(61 60)
(62 61)
(63 62)
(64 63)
(65 64)
(66 65)
(67 66)
(68 67)
(69 68)
(70 69)
(71 70)
(72 71)
(73 72)
(38 73)
)

// * * * * * * * * * * * * * * * * * * * * * * * * * * * * * * * * * * * * * //


// ************************************************************************* //
