/*--------------------------------*- C++ -*----------------------------------*\
  =========                 |
  \\      /  F ield         | OpenFOAM: The Open Source CFD Toolbox
   \\    /   O peration     | Website:  https://openfoam.org
    \\  /    A nd           | Version:  8
     \\/     M anipulation  |
\*---------------------------------------------------------------------------*/
FoamFile
{
    version     2.0;
    format      ascii;
    class       extendedFeatureEdgeMesh;
    location    "constant/extendedFeatureEdgeMesh";
    object      stirrer.extendedFeatureEdgeMesh;
}
// * * * * * * * * * * * * * * * * * * * * * * * * * * * * * * * * * * * * * //

// points

93
(
(0.00168759 0.000910833 0.0068119)
(0.00263865 0.000910833 0.00650289)
(0.00263865 0.00391083 0.00650289)
(0.00168759 0.00391083 0.0068119)
(-0.00595701 0.000910833 0.00370999)
(-0.00536923 0.000910833 0.004519)
(-0.00536923 0.00391083 0.004519)
(-0.00595701 0.00391083 0.00370999)
(-0.00536923 0.000910833 -0.004519)
(-0.00595701 0.000910833 -0.00370999)
(-0.00595701 0.00391083 -0.00370999)
(-0.00536923 0.00391083 -0.004519)
(0.00263865 0.000910833 -0.00650289)
(0.00168759 0.000910833 -0.0068119)
(0.00168759 0.00391083 -0.0068119)
(0.00263865 0.00391083 -0.00650289)
(0.007 0.000910833 0.0005)
(0.007 0.000910833 -0.0005)
(0.007 0.00391083 -0.0005)
(0.007 0.00391083 0.0005)
(0.000122881 0.000910833 0.00199622)
(0.00107394 0.000910833 0.00168721)
(0.00107394 0.00391083 0.00168721)
(0.000122881 0.00391083 0.00199622)
(-0.00186055 0.000910833 0.000733733)
(-0.00127276 0.000910833 0.00154275)
(-0.00127276 0.00391083 0.00154275)
(-0.00186055 0.00391083 0.000733733)
(-0.00127276 0.000910833 -0.00154275)
(-0.00186055 0.000910833 -0.000733733)
(-0.00186055 0.00391083 -0.000733733)
(-0.00127276 0.00391083 -0.00154275)
(0.00107394 0.000910833 -0.00168721)
(0.000122881 0.000910833 -0.00199622)
(0.000122881 0.00391083 -0.00199622)
(0.00107394 0.00391083 -0.00168721)
(0.00193649 0.000910833 0.0005)
(0.00193649 0.000910833 -0.0005)
(0.00193649 0.00391083 -0.0005)
(0.00193649 0.00391083 0.0005)
(0.001 0.052 0.00173205)
(0.000654136 0.052 0.00189)
(-9.51638e-05 0.052 0.00199773)
(-0.000471518 0.052 0.00194362)
(-0.00185674 0.052 -0.000743325)
(-0.00168251 0.052 -0.00108128)
(0.00191899 0.052 -0.000563465)
(0.00199094 0.052 -0.000190112)
(0.00177767 0.052 0.000916453)
(0.00157211 0.052 0.00123632)
(-0.002 0.052 1.07523e-16)
(-0.00196386 0.052 -0.000378503)
(-0.00196386 0.052 0.000378503)
(-0.00185674 0.052 0.000743325)
(-0.00168251 0.052 0.00108128)
(-0.00144747 0.052 0.00138016)
(-0.00116011 0.052 0.00162915)
(-0.00083083 0.052 0.00181926)
(-0.00144747 0.052 -0.00138016)
(-0.00116011 0.052 -0.00162915)
(-0.00083083 0.052 -0.00181926)
(-0.000471518 0.052 -0.00194362)
(-9.51638e-05 0.052 -0.00199773)
(0.00028463 0.052 -0.00197964)
(0.000654136 0.052 -0.00189)
(0.001 0.052 -0.00173205)
(0.00130972 0.052 -0.0015115)
(0.00157211 0.052 -0.00123632)
(0.00177767 0.052 -0.000916453)
(0.00199094 0.052 0.000190112)
(0.00191899 0.052 0.000563465)
(0.00130972 0.052 0.0015115)
(0.00028463 0.052 0.00197964)
(0.000455824 0.000910833 0.00194736)
(0.000775862 0.000910833 0.00184338)
(0.000775862 0.00391083 0.00184338)
(0.000455824 0.00391083 0.00194736)
(-0.0017112 0.000910833 0.00103528)
(-0.0015134 0.000910833 0.00130752)
(-0.0015134 0.00391083 0.00130752)
(-0.0017112 0.00391083 0.00103528)
(-0.0015134 0.000910833 -0.00130752)
(-0.0017112 0.000910833 -0.00103528)
(-0.0017112 0.00391083 -0.00103528)
(-0.0015134 0.00391083 -0.00130752)
(0.000775862 0.000910833 -0.00184338)
(0.000455824 0.000910833 -0.00194736)
(0.000455824 0.00391083 -0.00194736)
(0.000775862 0.00391083 -0.00184338)
(0.00199291 0.000910833 0.000168254)
(0.00199291 0.000910833 -0.000168254)
(0.00199291 0.00391083 -0.000168254)
(0.00199291 0.00391083 0.000168254)
)

// edges

113
(
(0 20)
(1 0)
(21 1)
(22 2)
(2 1)
(2 3)
(3 0)
(23 3)
(4 24)
(5 4)
(25 5)
(26 6)
(6 5)
(6 7)
(7 4)
(27 7)
(8 28)
(9 8)
(29 9)
(30 10)
(10 9)
(10 11)
(11 8)
(31 11)
(12 32)
(13 12)
(33 13)
(34 14)
(14 13)
(14 15)
(15 12)
(35 15)
(16 36)
(17 16)
(37 17)
(38 18)
(18 17)
(18 19)
(19 16)
(39 19)
(40 41)
(42 43)
(44 45)
(46 47)
(48 49)
(50 51)
(52 50)
(53 52)
(54 53)
(55 54)
(56 55)
(57 56)
(43 57)
(51 44)
(45 58)
(58 59)
(59 60)
(60 61)
(61 62)
(62 63)
(63 64)
(64 65)
(65 66)
(66 67)
(67 68)
(68 46)
(47 69)
(69 70)
(70 48)
(49 71)
(71 40)
(41 72)
(72 42)
(20 73)
(73 74)
(74 21)
(21 22)
(22 75)
(75 76)
(76 23)
(23 20)
(24 77)
(77 78)
(78 25)
(25 26)
(26 79)
(79 80)
(80 27)
(27 24)
(28 81)
(81 82)
(82 29)
(29 30)
(30 83)
(83 84)
(84 31)
(31 28)
(32 85)
(85 86)
(86 33)
(33 34)
(34 87)
(87 88)
(88 35)
(35 32)
(36 89)
(89 90)
(90 37)
(37 38)
(38 91)
(91 92)
(92 39)
(39 36)
)

// concaveStart mixedStart nonFeatureStart
20 20 40
// internalStart flatStart openStart multipleStart
73 113 113 113
// normals

174
(
(0 -1 0)
(-0.951056 0 0.309017)
(0 -1 -0)
(0.309017 0 0.951056)
(0 -1 0)
(0.951057 0 -0.309017)
(0.951057 0 -0.309017)
(0 1 -0)
(0.309017 0 0.951056)
(0 1 0)
(-0.951056 0 0.309017)
(0 1 0)
(0 -1 0)
(-0.587785 0 -0.809017)
(0 -1 0)
(-0.809017 0 0.587786)
(0 -1 0)
(0.587785 0 0.809017)
(0.587785 0 0.809017)
(0 1 0)
(-0.809017 0 0.587786)
(0 1 0)
(-0.587785 0 -0.809017)
(0 1 0)
(-0 -1 0)
(0.587785 0 -0.809017)
(0 -1 0)
(-0.809017 -0 -0.587786)
(0 -1 0)
(-0.587785 0 0.809017)
(-0.587785 0 0.809017)
(0 1 0)
(-0.809017 -0 -0.587786)
(-0 1 0)
(0.587785 0 -0.809017)
(0 1 0)
(0 -1 -0)
(0.951057 -0 0.309017)
(-0 -1 0)
(0.309017 0 -0.951056)
(0 -1 0)
(-0.951056 0 -0.309017)
(-0.951056 -0 -0.309017)
(-0 1 0)
(0.309017 0 -0.951056)
(0 1 -0)
(0.951057 0 0.309017)
(0 1 0)
(0 -1 0)
(0 0 1)
(0 -1 -0)
(1 0 0)
(0 -1 0)
(0 0 -1)
(0 0 -1)
(0 1 0)
(1 0 0)
(0 1 -0)
(-0 0 1)
(0 1 0)
(0.415415 0.00121906 0.909631)
(0 1 -0)
(-0.142316 0.00121911 0.989821)
(0 1 -0)
(-0.888835 0.0012191 -0.458226)
(-0 1 0)
(0.981928 0.00121905 -0.189251)
(0 1 0)
(0.841253 0.00121912 0.540641)
(0 1 -0)
(-0.995471 0.00121912 -0.095057)
(-0 1 0)
(-0.995471 0.00121912 0.095057)
(-0.959493 0.00121911 0.281731)
(0 1 -0)
(-0.888835 0.0012191 0.458226)
(0 1 -0)
(-0.786052 0.00121908 0.618159)
(0 1 -0)
(-0.654861 0.00121904 0.755749)
(0 1 -0)
(-0.499999 0.00121911 0.866025)
(0 1 -0)
(-0.327067 0.00121916 0.945)
(0 1 -0)
(-0.959493 0.00121911 -0.281731)
(-0 1 0)
(-0.786052 0.00121908 -0.618159)
(-0 1 0)
(-0.654861 0.00121904 -0.755749)
(-0 1 0)
(-0.499999 0.00121911 -0.866025)
(-0 1 0)
(-0.327067 0.00121916 -0.945)
(-0 1 0)
(-0.142316 0.00121911 -0.989821)
(-0 1 0)
(0.0475821 0.0012191 -0.998867)
(0 1 0)
(0.235758 0.00121904 -0.971811)
(0 1 0)
(0.415415 0.00121906 -0.909631)
(0 1 0)
(0.580058 0.00121913 -0.814575)
(0 1 0)
(0.723733 0.00121911 -0.690079)
(0 1 0)
(0.841253 0.00121912 -0.540641)
(0 1 0)
(0.928367 0.00121911 -0.371662)
(0 1 0)
(0.999999 0.0012191 0)
(0 1 -0)
(0.981928 0.00121905 0.189251)
(0.928367 0.00121911 0.371662)
(0 1 -0)
(0.723733 0.00121911 0.690079)
(0 1 -0)
(0.580058 0.00121913 0.814575)
(0 1 -0)
(0.235758 0.00121904 0.971811)
(0 1 -0)
(0.0475821 0.0012191 0.998867)
(0 1 -0)
(0.145189 0.00559046 0.989388)
(0 -1 0)
(0.309016 0.00290998 0.951052)
(0.464095 -0.000826384 0.885785)
(0.538831 -0 0.842414)
(0.464095 -0.00118008 0.885785)
(0 1 0)
(0.309017 -0.000367252 0.951056)
(0.145191 0.000404435 0.989404)
(0.0545043 -0 0.998514)
(-0.896093 0.0066971 0.443816)
(0 -1 0)
(-0.808994 0.00768415 0.587767)
(-0.698998 0.00761387 0.715083)
(-0.589547 0 0.807734)
(-0.699018 -0.00099136 0.715104)
(0 1 0)
(-0.809017 -0.00160318 0.587784)
(-0.896111 -0.00194151 0.443825)
(-0.945841 0 0.32463)
(-0.699018 0.000265195 -0.715104)
(0 -1 0)
(-0.809018 -0.000271608 -0.587784)
(-0.896108 0.00332592 -0.443823)
(-0.937846 0 -0.347053)
(-0.896111 -0.00194151 -0.443825)
(0 1 0)
(-0.809017 -0.00160318 -0.587784)
(-0.699018 -0.00099136 -0.715104)
(-0.627308 0 -0.778771)
(0.464081 0.00773549 -0.885759)
(0 -1 0)
(0.30901 0.00688803 -0.951034)
(0.145189 0.00498361 -0.989391)
(0.0545043 0 -0.998514)
(0.145191 0.000404435 -0.989404)
(0 1 0)
(0.309017 -0.000367252 -0.951056)
(0.464095 -0.00118008 -0.885785)
(0.558703 0 -0.829368)
(0.985842 0.00247548 0.167656)
(0 -1 0)
(0.999986 0.00529722 0)
(0.985821 0.00706143 -0.167652)
(0.957399 0 -0.288768)
(0.985844 -0.00187844 -0.167656)
(0 1 0)
(0.999998 -0.00201554 0)
(0.985844 -0.00187844 0.167656)
(0.967924 0 0.251242)
)

// normal volume types

174
(
0
0
0
0
0
0
0
0
0
0
0
0
0
0
0
0
0
0
0
0
0
0
0
0
0
0
0
0
0
0
0
0
0
0
0
0
0
0
0
0
0
0
0
0
0
0
0
0
0
0
0
0
0
0
0
0
0
0
0
0
0
0
0
0
0
0
0
0
0
0
0
0
0
0
0
0
0
0
0
0
0
0
0
0
0
0
0
0
0
0
0
0
0
0
0
0
0
0
0
0
0
0
0
0
0
0
0
0
0
0
0
0
0
0
0
0
0
0
0
0
0
0
0
0
0
0
0
0
0
0
0
0
0
0
0
0
0
0
0
0
0
0
0
0
0
0
0
0
0
0
0
0
0
0
0
0
0
0
0
0
0
0
0
0
0
0
0
0
0
0
0
0
0
0
)

// normalDirections

113
(
2(1 -1)
2(1 -1)
2(1 -1)
2(1 -1)
2(1 -1)
2(1 -1)
2(1 -1)
2(1 -1)
2(1 -1)
2(1 -1)
2(1 -1)
2(1 -1)
2(1 -1)
2(1 -1)
2(1 -1)
2(1 -1)
2(1 -1)
2(1 -1)
2(1 -1)
2(1 -1)
2(1 -1)
2(1 -1)
2(1 -1)
2(1 -1)
2(1 -1)
2(1 -1)
2(1 -1)
2(1 -1)
2(1 -1)
2(1 -1)
2(1 -1)
2(1 -1)
2(1 -1)
2(1 -1)
2(1 -1)
2(1 -1)
2(1 -1)
2(1 -1)
2(1 -1)
2(1 -1)
2(1 -1)
2(1 -1)
2(1 -1)
2(1 -1)
2(1 -1)
2(1 -1)
2(1 -1)
2(1 -1)
2(1 -1)
2(1 -1)
2(1 -1)
2(1 -1)
2(1 -1)
2(1 -1)
2(1 -1)
2(1 -1)
2(1 -1)
2(1 -1)
2(1 -1)
2(1 -1)
2(1 -1)
2(1 -1)
2(1 -1)
2(1 -1)
2(1 -1)
2(1 -1)
2(1 -1)
2(1 -1)
2(1 -1)
2(1 -1)
2(1 -1)
2(1 -1)
2(1 -1)
2(1 -1)
2(1 -1)
2(1 -1)
2(1 -1)
2(1 -1)
2(1 -1)
2(1 -1)
2(1 -1)
2(1 -1)
2(1 -1)
2(1 -1)
2(1 -1)
2(1 -1)
2(1 -1)
2(1 -1)
2(1 -1)
2(1 -1)
2(1 -1)
2(1 -1)
2(1 -1)
2(1 -1)
2(1 -1)
2(1 -1)
2(1 -1)
2(1 -1)
2(1 -1)
2(1 -1)
2(1 -1)
2(1 -1)
2(1 -1)
2(1 -1)
2(1 -1)
2(1 -1)
2(1 -1)
2(1 -1)
2(1 -1)
2(1 -1)
2(1 -1)
2(1 -1)
2(1 -1)
)

// edgeNormals

113
(
2(0 1)
2(2 3)
2(4 5)
2(6 7)
2(5 3)
2(8 9)
2(8 10)
2(11 10)
2(12 13)
2(14 15)
2(16 17)
2(18 19)
2(17 15)
2(20 21)
2(20 22)
2(23 22)
2(24 25)
2(26 27)
2(28 29)
2(30 31)
2(29 27)
2(32 33)
2(32 34)
2(35 34)
2(36 37)
2(38 39)
2(40 41)
2(42 43)
2(41 39)
2(44 45)
2(44 46)
2(47 46)
2(48 49)
2(50 51)
2(52 53)
2(54 55)
2(53 51)
2(56 57)
2(56 58)
2(59 58)
2(60 61)
2(62 63)
2(64 65)
2(66 67)
2(68 69)
2(70 71)
2(72 71)
2(73 74)
2(75 76)
2(77 78)
2(79 80)
2(81 82)
2(83 84)
2(85 86)
2(87 88)
2(89 90)
2(91 92)
2(93 94)
2(95 96)
2(97 98)
2(99 100)
2(101 102)
2(103 104)
2(105 106)
2(107 108)
2(109 110)
2(111 112)
2(113 112)
2(114 115)
2(116 117)
2(118 119)
2(120 121)
2(122 123)
2(0 124)
2(125 126)
2(4 127)
2(6 128)
2(7 129)
2(130 131)
2(11 132)
2(1 133)
2(12 134)
2(135 136)
2(16 137)
2(18 138)
2(19 139)
2(140 141)
2(23 142)
2(13 143)
2(24 144)
2(145 146)
2(28 147)
2(30 148)
2(31 149)
2(150 151)
2(35 152)
2(25 153)
2(36 154)
2(155 156)
2(40 157)
2(42 158)
2(43 159)
2(160 161)
2(47 162)
2(37 163)
2(48 164)
2(165 166)
2(52 167)
2(54 168)
2(55 169)
2(170 171)
2(59 172)
2(49 173)
)

// featurePointNormals

40
(
3(0 1 3)
3(2 3 5)
3(6 7 3)
3(8 9 10)
3(12 13 15)
3(14 15 17)
3(18 19 15)
3(20 21 22)
3(24 25 27)
3(26 27 29)
3(30 31 27)
3(32 33 34)
3(36 37 39)
3(38 39 41)
3(42 43 39)
3(44 45 46)
3(48 49 51)
3(50 51 53)
3(54 55 51)
3(56 57 58)
4(0 1 124 133)
4(4 5 127 128)
4(6 7 128 129)
4(11 10 132 133)
4(12 13 134 143)
4(16 17 137 138)
4(18 19 138 139)
4(23 22 142 143)
4(24 25 144 153)
4(28 29 147 148)
4(30 31 148 149)
4(35 34 152 153)
4(36 37 154 163)
4(40 41 157 158)
4(42 43 158 159)
4(47 46 162 163)
4(48 49 164 173)
4(52 53 167 168)
4(54 55 168 169)
4(59 58 172 173)
)

// featurePointEdges

40
(
3(1 6 0)
3(2 4 1)
3(4 5 3)
3(5 7 6)
3(9 14 8)
3(10 12 9)
3(12 13 11)
3(13 15 14)
3(17 22 16)
3(18 20 17)
3(20 21 19)
3(21 23 22)
3(25 30 24)
3(26 28 25)
3(28 29 27)
3(29 31 30)
3(33 38 32)
3(34 36 33)
3(36 37 35)
3(37 39 38)
3(0 80 73)
3(2 76 75)
3(3 77 76)
3(7 80 79)
3(8 88 81)
3(10 84 83)
3(11 85 84)
3(15 88 87)
3(16 96 89)
3(18 92 91)
3(19 93 92)
3(23 96 95)
3(24 104 97)
3(26 100 99)
3(27 101 100)
3(31 104 103)
3(32 112 105)
3(34 108 107)
3(35 109 108)
3(39 112 111)
)

// regionEdges
0()


// ************************************************************************* //
