/*--------------------------------*- C++ -*----------------------------------*\
  =========                 |
  \\      /  F ield         | OpenFOAM: The Open Source CFD Toolbox
   \\    /   O peration     | Website:  https://openfoam.org
    \\  /    A nd           | Version:  8
     \\/     M anipulation  |
\*---------------------------------------------------------------------------*/
FoamFile
{
    version     2.0;
    format      ascii;
    class       extendedFeatureEdgeMesh;
    location    "constant/extendedFeatureEdgeMesh";
    object      wall1.extendedFeatureEdgeMesh;
}
// * * * * * * * * * * * * * * * * * * * * * * * * * * * * * * * * * * * * * //

// points

332
(
(0.00179558 0.052 0.0143884)
(0.00289173 0.052 0.0142087)
(0.000688889 0.052 0.0144836)
(-0.000421843 0.052 0.0144939)
(-0.0015301 0.052 0.014419)
(-0.00262938 0.052 0.0142596)
(-0.00371322 0.052 0.0140165)
(-0.00477528 0.052 0.0136911)
(-0.00580931 0.052 0.0132854)
(-0.00680926 0.052 0.0128017)
(-0.00776924 0.052 0.0122429)
(-0.00868363 0.052 0.0116123)
(-0.00954706 0.052 0.0109135)
(-0.0103545 0.052 0.0101506)
(-0.0111011 0.052 0.00932821)
(-0.0117826 0.052 0.00845106)
(-0.0123949 0.052 0.00752431)
(-0.0129346 0.052 0.00655341)
(-0.0133983 0.052 0.00554405)
(-0.0137833 0.052 0.00450216)
(-0.0140875 0.052 0.00343384)
(-0.0143091 0.052 0.00234538)
(-0.0144466 0.052 0.00124315)
(-0.0144994 0.052 0.000133621)
(-0.0144671 0.052 -0.000976688)
(-0.0143498 0.052 -0.00208126)
(-0.0141484 0.052 -0.00317363)
(-0.013864 0.052 -0.00424737)
(-0.0134982 0.052 -0.00529618)
(-0.0130531 0.052 -0.00631392)
(-0.0125315 0.052 -0.0072946)
(-0.0119363 0.052 -0.00823247)
(-0.0112711 0.052 -0.00912204)
(-0.0105398 0.052 -0.00995807)
(-0.00974657 0.052 -0.0107357)
(-0.00889616 0.052 -0.0114502)
(-0.00799355 0.052 -0.0120977)
(-0.00704403 0.052 -0.0126741)
(-0.00605317 0.052 -0.0131761)
(-0.00502679 0.052 -0.0136008)
(-0.00397091 0.052 -0.0139457)
(-0.00289173 0.052 -0.0142087)
(-0.00179558 0.052 -0.0143884)
(-0.000688889 0.052 -0.0144836)
(0.000421843 0.052 -0.0144939)
(0.0015301 0.052 -0.014419)
(0.00262938 0.052 -0.0142596)
(0.00371322 0.052 -0.0140165)
(0.00477528 0.052 -0.0136911)
(0.00580931 0.052 -0.0132854)
(0.00680926 0.052 -0.0128017)
(0.00776924 0.052 -0.0122429)
(0.00868363 0.052 -0.0116123)
(0.00954706 0.052 -0.0109135)
(0.0103545 0.052 -0.0101506)
(0.0111011 0.052 -0.00932821)
(0.0117826 0.052 -0.00845106)
(0.0123949 0.052 -0.00752431)
(0.0129346 0.052 -0.00655341)
(0.0133983 0.052 -0.00554405)
(0.0137833 0.052 -0.00450216)
(0.0140875 0.052 -0.00343384)
(0.0143091 0.052 -0.00234538)
(0.0144466 0.052 -0.00124315)
(0.0144994 0.052 -0.000133621)
(0.0144671 0.052 0.000976688)
(0.0143498 0.052 0.00208126)
(0.0141484 0.052 0.00317363)
(0.013864 0.052 0.00424737)
(0.0134982 0.052 0.00529618)
(0.0130531 0.052 0.00631392)
(0.0125315 0.052 0.0072946)
(0.0119363 0.052 0.00823247)
(0.0112711 0.052 0.00912204)
(0.0105398 0.052 0.00995807)
(0.00974657 0.052 0.0107357)
(0.00889616 0.052 0.0114502)
(0.00799355 0.052 0.0120977)
(0.00704403 0.052 0.0126741)
(0.00605317 0.052 0.0131761)
(0.00502679 0.052 0.0136008)
(0.00397091 0.052 0.0139457)
(0.00179558 -1.18926e-18 0.0143884)
(0.000688889 -2.90684e-19 0.0144836)
(0.00289173 -2.08086e-18 0.0142087)
(0.00397091 -2.96024e-18 0.0139457)
(0.00502679 -3.82226e-18 0.0136008)
(0.00605317 -4.66184e-18 0.0131761)
(0.00704403 -5.47407e-18 0.0126741)
(0.00799355 -6.25417e-18 0.0120977)
(0.00889616 -6.99757e-18 0.0114502)
(0.00974657 -7.69991e-18 0.0107357)
(0.0105398 -8.35706e-18 0.00995807)
(0.0112711 -8.96516e-18 0.00912204)
(0.0119363 -9.52066e-18 0.00823247)
(0.0125315 -1.00203e-17 0.0072946)
(0.0130531 -1.04611e-17 0.00631392)
(0.0134982 -1.08405e-17 0.00529618)
(0.013864 -1.11564e-17 0.00424737)
(0.0141484 -1.14067e-17 0.00317363)
(0.0143498 -1.15901e-17 0.00208126)
(0.0144671 -1.17055e-17 0.000976688)
(0.0144994 -1.17522e-17 -0.000133621)
(0.0144466 -1.17299e-17 -0.00124315)
(0.0143091 -1.16388e-17 -0.00234538)
(0.0140875 -1.14794e-17 -0.00343384)
(0.0137833 -1.12526e-17 -0.00450216)
(0.0133983 -1.09598e-17 -0.00554405)
(0.0129346 -1.06027e-17 -0.00655341)
(0.0123949 -1.01834e-17 -0.00752431)
(0.0117826 -9.70427e-18 -0.00845106)
(0.0111011 -9.16822e-18 -0.00932821)
(0.0103545 -8.57837e-18 -0.0101506)
(0.00954706 -7.93817e-18 -0.0109135)
(0.00868363 -7.25139e-18 -0.0116123)
(0.00776924 -6.52205e-18 -0.0122429)
(0.00680926 -5.75445e-18 -0.0128017)
(0.00580931 -4.95307e-18 -0.0132854)
(0.00477528 -4.12262e-18 -0.0136911)
(0.00371322 -3.26799e-18 -0.0140165)
(0.00262938 -2.39417e-18 -0.0142596)
(0.0015301 -1.5063e-18 -0.014419)
(0.000421843 -6.09599e-19 -0.0144939)
(-0.000688889 2.90684e-19 -0.0144836)
(-0.00179558 1.18926e-18 -0.0143884)
(-0.00289173 2.08086e-18 -0.0142087)
(-0.00397091 2.96024e-18 -0.0139457)
(-0.00502679 3.82226e-18 -0.0136008)
(-0.00605317 4.66184e-18 -0.0131761)
(-0.00704403 5.47407e-18 -0.0126741)
(-0.00799355 6.25417e-18 -0.0120977)
(-0.00889616 6.99757e-18 -0.0114502)
(-0.00974657 7.69991e-18 -0.0107357)
(-0.0105398 8.35706e-18 -0.00995807)
(-0.0112711 8.96516e-18 -0.00912204)
(-0.0119363 9.52066e-18 -0.00823247)
(-0.0125315 1.00203e-17 -0.0072946)
(-0.0130531 1.04611e-17 -0.00631392)
(-0.0134982 1.08405e-17 -0.00529618)
(-0.013864 1.11564e-17 -0.00424737)
(-0.0141484 1.14067e-17 -0.00317363)
(-0.0143498 1.15901e-17 -0.00208126)
(-0.0144671 1.17055e-17 -0.000976688)
(-0.0144994 1.17522e-17 0.000133621)
(-0.0144466 1.17299e-17 0.00124315)
(-0.0143091 1.16388e-17 0.00234538)
(-0.0140875 1.14794e-17 0.00343384)
(-0.0137833 1.12526e-17 0.00450216)
(-0.0133983 1.09598e-17 0.00554405)
(-0.0129346 1.06027e-17 0.00655341)
(-0.0123949 1.01834e-17 0.00752431)
(-0.0117826 9.70427e-18 0.00845106)
(-0.0111011 9.16822e-18 0.00932821)
(-0.0103545 8.57837e-18 0.0101506)
(-0.00954706 7.93817e-18 0.0109135)
(-0.00868363 7.25139e-18 0.0116123)
(-0.00776924 6.52205e-18 0.0122429)
(-0.00680926 5.75445e-18 0.0128017)
(-0.00580931 4.95307e-18 0.0132854)
(-0.00477528 4.12262e-18 0.0136911)
(-0.00371322 3.26799e-18 0.0140165)
(-0.00262938 2.39417e-18 0.0142596)
(-0.0015301 1.5063e-18 0.014419)
(-0.000421843 6.09599e-19 0.0144939)
(0.0018575 0.052 0.0148846)
(0.000739978 0.052 0.0149817)
(0.00296462 0.052 0.0147041)
(0.00405517 0.052 0.0144415)
(0.00512305 0.052 0.014098)
(0.00616227 0.052 0.0136758)
(0.00716703 0.052 0.013177)
(0.00813171 0.052 0.0126046)
(0.00905091 0.052 0.0119617)
(0.0099195 0.052 0.0112518)
(0.0107326 0.052 0.0104791)
(0.0114857 0.052 0.00964773)
(0.0121746 0.052 0.00876242)
(0.0127953 0.052 0.00782811)
(0.0133445 0.052 0.00685003)
(0.0138191 0.052 0.00583364)
(0.0142165 0.052 0.00478462)
(0.0145342 0.052 0.00370884)
(0.0147708 0.052 0.00261232)
(0.0149247 0.052 0.0015012)
(0.0149951 0.052 0.000381678)
(0.0149817 0.052 -0.000739978)
(0.0148846 0.052 -0.0018575)
(0.0147041 0.052 -0.00296462)
(0.0144415 0.052 -0.00405517)
(0.014098 0.052 -0.00512305)
(0.0136758 0.052 -0.00616227)
(0.013177 0.052 -0.00716703)
(0.0126046 0.052 -0.00813171)
(0.0119617 0.052 -0.00905091)
(0.0112518 0.052 -0.0099195)
(0.0104791 0.052 -0.0107326)
(0.00964773 0.052 -0.0114857)
(0.00876242 0.052 -0.0121746)
(0.00782811 0.052 -0.0127953)
(0.00685003 0.052 -0.0133445)
(0.00583364 0.052 -0.0138191)
(0.00478462 0.052 -0.0142165)
(0.00370884 0.052 -0.0145342)
(0.00261232 0.052 -0.0147708)
(0.0015012 0.052 -0.0149247)
(0.000381678 0.052 -0.0149951)
(-0.000739978 0.052 -0.0149817)
(-0.0018575 0.052 -0.0148846)
(-0.00296462 0.052 -0.0147041)
(-0.00405517 0.052 -0.0144415)
(-0.00512305 0.052 -0.014098)
(-0.00616227 0.052 -0.0136758)
(-0.00716703 0.052 -0.013177)
(-0.00813171 0.052 -0.0126046)
(-0.00905091 0.052 -0.0119617)
(-0.0099195 0.052 -0.0112518)
(-0.0107326 0.052 -0.0104791)
(-0.0114857 0.052 -0.00964773)
(-0.0121746 0.052 -0.00876242)
(-0.0127953 0.052 -0.00782811)
(-0.0133445 0.052 -0.00685003)
(-0.0138191 0.052 -0.00583364)
(-0.0142165 0.052 -0.00478462)
(-0.0145342 0.052 -0.00370884)
(-0.0147708 0.052 -0.00261232)
(-0.0149247 0.052 -0.0015012)
(-0.0149951 0.052 -0.000381678)
(-0.0149817 0.052 0.000739978)
(-0.0148846 0.052 0.0018575)
(-0.0147041 0.052 0.00296462)
(-0.0144415 0.052 0.00405517)
(-0.014098 0.052 0.00512305)
(-0.0136758 0.052 0.00616227)
(-0.013177 0.052 0.00716703)
(-0.0126046 0.052 0.00813171)
(-0.0119617 0.052 0.00905091)
(-0.0112518 0.052 0.0099195)
(-0.0104791 0.052 0.0107326)
(-0.00964773 0.052 0.0114857)
(-0.00876242 0.052 0.0121746)
(-0.00782811 0.052 0.0127953)
(-0.00685003 0.052 0.0133445)
(-0.00583364 0.052 0.0138191)
(-0.00478462 0.052 0.0142165)
(-0.00370884 0.052 0.0145342)
(-0.00261232 0.052 0.0147708)
(-0.0015012 0.052 0.0149247)
(-0.000381678 0.052 0.0149951)
(0.0018575 -1.23027e-18 0.0148846)
(0.00296462 -2.13078e-18 0.0147041)
(0.000739978 -3.22882e-19 0.0149817)
(-0.000381678 5.86311e-19 0.0149951)
(-0.0015012 1.49223e-18 0.0149247)
(-0.00261232 2.3898e-18 0.0147708)
(-0.00370884 3.274e-18 0.0145342)
(-0.00478462 4.13989e-18 0.0142165)
(-0.00583364 4.98264e-18 0.0138191)
(-0.00685003 5.79751e-18 0.0133445)
(-0.00782811 6.57997e-18 0.0127953)
(-0.00876242 7.32563e-18 0.0121746)
(-0.00964773 8.03032e-18 0.0114857)
(-0.0104791 8.6901e-18 0.0107326)
(-0.0112518 9.30128e-18 0.0099195)
(-0.0119617 9.86045e-18 0.00905091)
(-0.0126046 1.03645e-17 0.00813171)
(-0.013177 1.08105e-17 0.00716703)
(-0.0136758 1.11961e-17 0.00616227)
(-0.014098 1.15191e-17 0.00512305)
(-0.0144415 1.17777e-17 0.00405517)
(-0.0147041 1.19704e-17 0.00296462)
(-0.0148846 1.20962e-17 0.0018575)
(-0.0149817 1.21543e-17 0.000739978)
(-0.0149951 1.21444e-17 -0.000381678)
(-0.0149247 1.20667e-17 -0.0015012)
(-0.0147708 1.19214e-17 -0.00261232)
(-0.0145342 1.17095e-17 -0.00370884)
(-0.0142165 1.14321e-17 -0.00478462)
(-0.0138191 1.10907e-17 -0.00583364)
(-0.0133445 1.06874e-17 -0.00685003)
(-0.0127953 1.02242e-17 -0.00782811)
(-0.0121746 9.70391e-18 -0.00876242)
(-0.0114857 9.12933e-18 -0.00964773)
(-0.0107326 8.5037e-18 -0.0104791)
(-0.0099195 7.83051e-18 -0.0112518)
(-0.00905091 7.11353e-18 -0.0119617)
(-0.00813171 6.35676e-18 -0.0126046)
(-0.00716703 5.56445e-18 -0.013177)
(-0.00616227 4.74102e-18 -0.0136758)
(-0.00512305 3.89107e-18 -0.014098)
(-0.00405517 3.01937e-18 -0.0144415)
(-0.00296462 2.13078e-18 -0.0147041)
(-0.0018575 1.23027e-18 -0.0148846)
(-0.000739978 3.22882e-19 -0.0149817)
(0.000381678 -5.86311e-19 -0.0149951)
(0.0015012 -1.49223e-18 -0.0149247)
(0.00261232 -2.3898e-18 -0.0147708)
(0.00370884 -3.274e-18 -0.0145342)
(0.00478462 -4.13989e-18 -0.0142165)
(0.00583364 -4.98264e-18 -0.0138191)
(0.00685003 -5.79751e-18 -0.0133445)
(0.00782811 -6.57997e-18 -0.0127953)
(0.00876242 -7.32563e-18 -0.0121746)
(0.00964773 -8.03032e-18 -0.0114857)
(0.0104791 -8.6901e-18 -0.0107326)
(0.0112518 -9.30128e-18 -0.0099195)
(0.0119617 -9.86045e-18 -0.00905091)
(0.0126046 -1.03645e-17 -0.00813171)
(0.013177 -1.08105e-17 -0.00716703)
(0.0136758 -1.11961e-17 -0.00616227)
(0.014098 -1.15191e-17 -0.00512305)
(0.0144415 -1.17777e-17 -0.00405517)
(0.0147041 -1.19704e-17 -0.00296462)
(0.0148846 -1.20962e-17 -0.0018575)
(0.0149817 -1.21543e-17 -0.000739978)
(0.0149951 -1.21444e-17 0.000381678)
(0.0149247 -1.20667e-17 0.0015012)
(0.0147708 -1.19214e-17 0.00261232)
(0.0145342 -1.17095e-17 0.00370884)
(0.0142165 -1.14321e-17 0.00478462)
(0.0138191 -1.10907e-17 0.00583364)
(0.0133445 -1.06874e-17 0.00685003)
(0.0127953 -1.02242e-17 0.00782811)
(0.0121746 -9.70391e-18 0.00876242)
(0.0114857 -9.12933e-18 0.00964773)
(0.0107326 -8.5037e-18 0.0104791)
(0.0099195 -7.83051e-18 0.0112518)
(0.00905091 -7.11353e-18 0.0119617)
(0.00813171 -6.35676e-18 0.0126046)
(0.00716703 -5.56445e-18 0.013177)
(0.00616227 -4.74102e-18 0.0136758)
(0.00512305 -3.89107e-18 0.014098)
(0.00405517 -3.01937e-18 0.0144415)
)

// edges

332
(
(0 1)
(2 0)
(3 2)
(4 3)
(5 4)
(6 5)
(7 6)
(8 7)
(9 8)
(10 9)
(11 10)
(12 11)
(13 12)
(14 13)
(15 14)
(16 15)
(17 16)
(18 17)
(19 18)
(20 19)
(21 20)
(22 21)
(23 22)
(24 23)
(25 24)
(26 25)
(27 26)
(28 27)
(29 28)
(30 29)
(31 30)
(32 31)
(33 32)
(34 33)
(35 34)
(36 35)
(37 36)
(38 37)
(39 38)
(40 39)
(41 40)
(42 41)
(43 42)
(44 43)
(45 44)
(46 45)
(47 46)
(48 47)
(49 48)
(50 49)
(51 50)
(52 51)
(53 52)
(54 53)
(55 54)
(56 55)
(57 56)
(58 57)
(59 58)
(60 59)
(61 60)
(62 61)
(63 62)
(64 63)
(65 64)
(66 65)
(67 66)
(68 67)
(69 68)
(70 69)
(71 70)
(72 71)
(73 72)
(74 73)
(75 74)
(76 75)
(77 76)
(78 77)
(79 78)
(80 79)
(81 80)
(1 81)
(82 83)
(84 82)
(85 84)
(86 85)
(87 86)
(88 87)
(89 88)
(90 89)
(91 90)
(92 91)
(93 92)
(94 93)
(95 94)
(96 95)
(97 96)
(98 97)
(99 98)
(100 99)
(101 100)
(102 101)
(103 102)
(104 103)
(105 104)
(106 105)
(107 106)
(108 107)
(109 108)
(110 109)
(111 110)
(112 111)
(113 112)
(114 113)
(115 114)
(116 115)
(117 116)
(118 117)
(119 118)
(120 119)
(121 120)
(122 121)
(123 122)
(124 123)
(125 124)
(126 125)
(127 126)
(128 127)
(129 128)
(130 129)
(131 130)
(132 131)
(133 132)
(134 133)
(135 134)
(136 135)
(137 136)
(138 137)
(139 138)
(140 139)
(141 140)
(142 141)
(143 142)
(144 143)
(145 144)
(146 145)
(147 146)
(148 147)
(149 148)
(150 149)
(151 150)
(152 151)
(153 152)
(154 153)
(155 154)
(156 155)
(157 156)
(158 157)
(159 158)
(160 159)
(161 160)
(162 161)
(163 162)
(83 163)
(164 165)
(166 164)
(167 166)
(168 167)
(169 168)
(170 169)
(171 170)
(172 171)
(173 172)
(174 173)
(175 174)
(176 175)
(177 176)
(178 177)
(179 178)
(180 179)
(181 180)
(182 181)
(183 182)
(184 183)
(185 184)
(186 185)
(187 186)
(188 187)
(189 188)
(190 189)
(191 190)
(192 191)
(193 192)
(194 193)
(195 194)
(196 195)
(197 196)
(198 197)
(199 198)
(200 199)
(201 200)
(202 201)
(203 202)
(204 203)
(205 204)
(206 205)
(207 206)
(208 207)
(209 208)
(210 209)
(211 210)
(212 211)
(213 212)
(214 213)
(215 214)
(216 215)
(217 216)
(218 217)
(219 218)
(220 219)
(221 220)
(222 221)
(223 222)
(224 223)
(225 224)
(226 225)
(227 226)
(228 227)
(229 228)
(230 229)
(231 230)
(232 231)
(233 232)
(234 233)
(235 234)
(236 235)
(237 236)
(238 237)
(239 238)
(240 239)
(241 240)
(242 241)
(243 242)
(244 243)
(245 244)
(246 245)
(247 246)
(165 247)
(248 249)
(250 248)
(251 250)
(252 251)
(253 252)
(254 253)
(255 254)
(256 255)
(257 256)
(258 257)
(259 258)
(260 259)
(261 260)
(262 261)
(263 262)
(264 263)
(265 264)
(266 265)
(267 266)
(268 267)
(269 268)
(270 269)
(271 270)
(272 271)
(273 272)
(274 273)
(275 274)
(276 275)
(277 276)
(278 277)
(279 278)
(280 279)
(281 280)
(282 281)
(283 282)
(284 283)
(285 284)
(286 285)
(287 286)
(288 287)
(289 288)
(290 289)
(291 290)
(292 291)
(293 292)
(294 293)
(295 294)
(296 295)
(297 296)
(298 297)
(299 298)
(300 299)
(301 300)
(302 301)
(303 302)
(304 303)
(305 304)
(306 305)
(307 306)
(308 307)
(309 308)
(310 309)
(311 310)
(312 311)
(313 312)
(314 313)
(315 314)
(316 315)
(317 316)
(318 317)
(319 318)
(320 319)
(321 320)
(322 321)
(323 322)
(324 323)
(325 324)
(326 325)
(327 326)
(328 327)
(329 328)
(330 329)
(331 330)
(249 331)
)

// concaveStart mixedStart nonFeatureStart
0 0 0
// internalStart flatStart openStart multipleStart
332 332 332 332
// normals

664
(
(-0.161742 -0 -0.986833)
(-0 1 0)
(-0.0857414 -0 -0.996317)
(-0 1 0)
(-0.00921027 -0 -0.999958)
(-0 1 0)
(0.0673587 0 -0.997729)
(0 1 0)
(0.143529 0 -0.989646)
(0 1 0)
(0.218873 0 -0.975753)
(0 1 0)
(0.292921 0 -0.956137)
(0 1 -0)
(0.365256 0 -0.930907)
(0 1 -0)
(0.435443 0 -0.900216)
(0 1 -0)
(0.503078 0 -0.864241)
(0 1 -0)
(0.567756 0 -0.823197)
(0 1 -0)
(0.629107 0 -0.777319)
(0 1 -0)
(0.686763 0 -0.726882)
(0 1 -0)
(0.74039 0 -0.672177)
(0 1 -0)
(0.78967 0 -0.613532)
(0 1 -0)
(0.834321 0 -0.55128)
(0 1 -0)
(0.874073 0 -0.485794)
(0 1 -0)
(0.908697 0 -0.417456)
(0 1 -0)
(0.937985 0 -0.346676)
(0 1 -0)
(0.961769 0 -0.273861)
(0 1 -0)
(0.979913 0 -0.199427)
(0 1 -0)
(0.992303 0 -0.123832)
(0 1 -0)
(0.998871 0 -0.0475077)
(0 1 -0)
(0.999577 0 0.029088)
(0 1 0)
(0.994416 0 0.105529)
(0 1 0)
(0.983422 0 0.181332)
(0 1 0)
(0.966655 0 0.256082)
(0 1 0)
(0.944213 0 0.329336)
(0 1 0)
(0.916236 0 0.400638)
(0 1 0)
(0.882876 0 0.469607)
(0 1 0)
(0.844342 0 0.535805)
(0 1 0)
(0.800843 0 0.598875)
(0 1 0)
(0.752656 0 0.658414)
(0 1 0)
(0.700041 0 0.714103)
(0 1 0)
(0.643324 0 0.765594)
(0 1 0)
(0.582834 0 0.812591)
(0 1 0)
(0.518916 0 0.854825)
(0 1 0)
(0.451961 0 0.892038)
(0 1 0)
(0.382353 0 0.924016)
(0 1 0)
(0.310485 0 0.950578)
(0 1 0)
(0.236825 0 0.971552)
(0 1 0)
(0.161742 0 0.986833)
(0 1 0)
(0.0857414 0 0.996317)
(0 1 0)
(0.00921027 0 0.999958)
(0 1 0)
(-0.0673587 0 0.997729)
(0 1 0)
(-0.143529 0 0.989646)
(0 1 0)
(-0.218873 0 0.975753)
(0 1 0)
(-0.292921 0 0.956137)
(0 1 0)
(-0.365256 0 0.930907)
(0 1 0)
(-0.435443 0 0.900216)
(0 1 0)
(-0.503078 0 0.864241)
(0 1 0)
(-0.567756 0 0.823197)
(0 1 0)
(-0.629107 0 0.777319)
(0 1 0)
(-0.686763 0 0.726882)
(0 1 0)
(-0.74039 0 0.672177)
(0 1 0)
(-0.78967 0 0.613532)
(0 1 0)
(-0.834321 0 0.55128)
(0 1 0)
(-0.874073 0 0.485794)
(0 1 0)
(-0.908697 0 0.417456)
(0 1 0)
(-0.937985 0 0.346676)
(0 1 0)
(-0.961769 0 0.273861)
(0 1 0)
(-0.979913 0 0.199427)
(0 1 0)
(-0.992303 0 0.123832)
(0 1 0)
(-0.998871 0 0.0475077)
(0 1 0)
(-0.999577 -0 -0.029088)
(0 1 0)
(-0.994416 -0 -0.105529)
(0 1 0)
(-0.983422 -0 -0.181332)
(0 1 0)
(-0.966655 -0 -0.256082)
(0 1 0)
(-0.944213 -0 -0.329336)
(0 1 0)
(-0.916236 -0 -0.400638)
(0 1 0)
(-0.882876 -0 -0.469607)
(0 1 0)
(-0.844342 -0 -0.535805)
(0 1 0)
(-0.800843 -0 -0.598875)
(0 1 0)
(-0.752656 -0 -0.658414)
(0 1 0)
(-0.700041 -0 -0.714103)
(0 1 0)
(-0.643324 -0 -0.765594)
(0 1 0)
(-0.582834 -0 -0.812591)
(0 1 0)
(-0.518916 -0 -0.854825)
(0 1 0)
(-0.451961 -0 -0.892038)
(-0 1 0)
(-0.382353 -0 -0.924016)
(-0 1 0)
(-0.310485 -0 -0.950578)
(-0 1 0)
(-0.236825 -0 -0.971552)
(-0 1 0)
(-0.0857414 0 -0.996317)
(-8.10361e-16 -1 1.84737e-17)
(-0.161742 0 -0.986833)
(-8.1036e-16 -1 1.84732e-17)
(-0.236825 0 -0.971552)
(-8.10361e-16 -1 1.84747e-17)
(-0.310485 0 -0.950578)
(-8.1036e-16 -1 1.84725e-17)
(-0.382353 0 -0.924016)
(-8.10361e-16 -1 1.8474e-17)
(-0.451961 0 -0.892038)
(-8.10361e-16 -1 1.84746e-17)
(-0.518916 0 -0.854825)
(-8.1036e-16 -1 1.84741e-17)
(-0.582834 0 -0.812591)
(-8.10361e-16 -1 1.8473e-17)
(-0.643324 0 -0.765594)
(-8.1036e-16 -1 1.84749e-17)
(-0.700041 0 -0.714103)
(-8.10363e-16 -1 1.84672e-17)
(-0.752656 0 -0.658414)
(-8.10366e-16 -1 1.84754e-17)
(-0.800843 0 -0.598875)
(-8.10363e-16 -1 1.84665e-17)
(-0.844342 0 -0.535805)
(-8.1035e-16 -1 1.84897e-17)
(-0.882876 0 -0.469607)
(-8.10367e-16 -1 1.84652e-17)
(-0.916236 0 -0.400638)
(-8.1036e-16 -1 1.84757e-17)
(-0.944213 0 -0.329336)
(-8.10354e-16 -1 1.84747e-17)
(-0.966655 0 -0.256082)
(-8.10366e-16 -1 1.8469e-17)
(-0.983422 0 -0.181332)
(-8.10354e-16 -1 1.84814e-17)
(-0.994416 0 -0.105529)
(-8.1036e-16 -1 1.84683e-17)
(-0.999577 0 -0.029088)
(-8.10357e-16 -1 1.84788e-17)
(-0.998871 0 0.0475077)
(-8.10351e-16 -1 1.84696e-17)
(-0.992303 0 0.123832)
(-8.1034e-16 -1 1.84737e-17)
(-0.979913 0 0.199427)
(-8.10348e-16 -1 1.84644e-17)
(-0.961769 0 0.273861)
(-8.10368e-16 -1 1.84813e-17)
(-0.937985 0 0.346676)
(-8.10361e-16 -1 1.84709e-17)
(-0.908697 0 0.417456)
(-8.10371e-16 -1 1.84758e-17)
(-0.874073 0 0.485794)
(-8.10361e-16 -1 1.84769e-17)
(-0.834321 0 0.55128)
(-8.10351e-16 -1 1.84648e-17)
(-0.78967 0 0.613532)
(-8.10355e-16 -1 1.84748e-17)
(-0.74039 0 0.672177)
(-8.10362e-16 -1 1.84743e-17)
(-0.686763 0 0.726882)
(-8.10357e-16 -1 1.84673e-17)
(-0.629107 0 0.777319)
(-8.10361e-16 -1 1.8473e-17)
(-0.567756 0 0.823197)
(-8.10361e-16 -1 1.84747e-17)
(-0.503078 0 0.864241)
(-8.10361e-16 -1 1.84747e-17)
(-0.435443 0 0.900216)
(-8.1036e-16 -1 1.84724e-17)
(-0.365256 0 0.930907)
(-8.1036e-16 -1 1.84734e-17)
(-0.292921 0 0.956137)
(-8.10361e-16 -1 1.84729e-17)
(-0.218873 0 0.975753)
(-8.1036e-16 -1 1.8474e-17)
(-0.143529 0 0.989646)
(-8.1036e-16 -1 1.84743e-17)
(-0.0673587 0 0.997729)
(-8.10361e-16 -1 1.84741e-17)
(0.00921027 -0 0.999958)
(-8.10361e-16 -1 1.84736e-17)
(0.0857414 -0 0.996317)
(-8.10361e-16 -1 1.84737e-17)
(0.161742 -0 0.986833)
(-8.1036e-16 -1 1.84732e-17)
(0.236825 -0 0.971552)
(-8.10361e-16 -1 1.84747e-17)
(0.310485 -0 0.950578)
(-8.1036e-16 -1 1.84725e-17)
(0.382353 -0 0.924016)
(-8.10361e-16 -1 1.8474e-17)
(0.451961 -0 0.892038)
(-8.10361e-16 -1 1.84746e-17)
(0.518916 -0 0.854825)
(-8.1036e-16 -1 1.84741e-17)
(0.582834 -0 0.812591)
(-8.10361e-16 -1 1.8473e-17)
(0.643324 -0 0.765594)
(-8.1036e-16 -1 1.84749e-17)
(0.700041 -0 0.714103)
(-8.10363e-16 -1 1.84672e-17)
(0.752656 -0 0.658414)
(-8.10366e-16 -1 1.84754e-17)
(0.800843 -0 0.598875)
(-8.10363e-16 -1 1.84665e-17)
(0.844342 -0 0.535805)
(-8.1035e-16 -1 1.84897e-17)
(0.882876 -0 0.469607)
(-8.10367e-16 -1 1.84652e-17)
(0.916236 -0 0.400638)
(-8.1036e-16 -1 1.84757e-17)
(0.944213 -0 0.329336)
(-8.10354e-16 -1 1.84747e-17)
(0.966655 -0 0.256082)
(-8.10366e-16 -1 1.8469e-17)
(0.983422 -0 0.181332)
(-8.10354e-16 -1 1.84814e-17)
(0.994416 -0 0.105529)
(-8.1036e-16 -1 1.84683e-17)
(0.999577 -0 0.029088)
(-8.10357e-16 -1 1.84788e-17)
(0.998871 0 -0.0475077)
(-8.10351e-16 -1 1.84696e-17)
(0.992303 0 -0.123832)
(-8.1034e-16 -1 1.84737e-17)
(0.979913 0 -0.199427)
(-8.10348e-16 -1 1.84644e-17)
(0.961769 0 -0.273861)
(-8.10368e-16 -1 1.84813e-17)
(0.937985 0 -0.346676)
(-8.10361e-16 -1 1.84709e-17)
(0.908697 0 -0.417456)
(-8.10371e-16 -1 1.84758e-17)
(0.874073 0 -0.485794)
(-8.10361e-16 -1 1.84769e-17)
(0.834321 0 -0.55128)
(-8.10351e-16 -1 1.84648e-17)
(0.78967 0 -0.613532)
(-8.10355e-16 -1 1.84748e-17)
(0.74039 0 -0.672177)
(-8.10362e-16 -1 1.84743e-17)
(0.686763 0 -0.726882)
(-8.10357e-16 -1 1.84673e-17)
(0.629107 0 -0.777319)
(-8.10361e-16 -1 1.8473e-17)
(0.567756 0 -0.823197)
(-8.10361e-16 -1 1.84747e-17)
(0.503078 0 -0.864241)
(-8.10361e-16 -1 1.84747e-17)
(0.435443 0 -0.900216)
(-8.1036e-16 -1 1.84724e-17)
(0.365256 0 -0.930907)
(-8.1036e-16 -1 1.84734e-17)
(0.292921 0 -0.956137)
(-8.10361e-16 -1 1.84729e-17)
(0.218873 0 -0.975753)
(-8.1036e-16 -1 1.8474e-17)
(0.143529 0 -0.989646)
(-8.1036e-16 -1 1.84743e-17)
(0.0673587 0 -0.997729)
(-8.10361e-16 -1 1.84741e-17)
(-0.00921027 0 -0.999958)
(-8.10361e-16 -1 1.84736e-17)
(0.0866425 0.000605114 0.996239)
(0 1 0)
(0.160849 0.000604551 0.986979)
(0 1 0)
(0.234164 0.000604302 0.972197)
(0 1 0)
(0.306151 0.000602793 0.951983)
(0 1 0)
(0.376443 0.000600719 0.92644)
(0 1 0)
(0.444622 0.000598386 0.895718)
(0 1 0)
(0.510309 0.000594681 0.859991)
(-0 1 0)
(0.573156 0.000589894 0.819446)
(-0 1 0)
(0.632793 0.000585582 0.774321)
(-0 1 0)
(0.688883 0.000579907 0.724873)
(-0 1 0)
(0.74113 0.000573504 0.671361)
(-0 1 0)
(0.789227 0.000566315 0.614101)
(-0 1 0)
(0.83291 0.000558377 0.553408)
(-0 1 0)
(0.871942 0.000550192 0.489609)
(-0 1 0)
(0.906089 0.000541009 0.423086)
(-0 1 0)
(0.935173 0.000531227 0.354191)
(-0 1 0)
(0.959028 0.00052092 0.283311)
(-0 1 0)
(0.977518 0.000509406 0.210852)
(-0 1 0)
(0.990541 0.000497427 0.137216)
(-0 1 0)
(0.998026 0.000484943 0.0628044)
(-0 1 0)
(0.999929 0.000471297 -0.0119457)
(-0 1 0)
(0.996239 0.00045714 -0.0866425)
(-0 1 0)
(0.986979 0.00044251 -0.160849)
(-0 1 0)
(0.972197 0.000427384 -0.234164)
(-0 1 0)
(0.951983 0.000410841 -0.306151)
(-0 1 0)
(0.92644 0.000394221 -0.376443)
(-0 1 0)
(0.895718 0.000376622 -0.444622)
(-0 1 0)
(0.859991 0.000358483 -0.510309)
(-0 1 0)
(0.819446 0.000339442 -0.573156)
(-0 1 0)
(0.774321 0.000319719 -0.632793)
(-0 1 0)
(0.724873 0.000299344 -0.688883)
(-0 1 0)
(0.671361 0.00027839 -0.74113)
(-0 1 0)
(0.614101 0.000256518 -0.789227)
(-0 1 0)
(0.553409 0.000233688 -0.83291)
(-0 1 0)
(0.489609 0.000210901 -0.871942)
(-0 1 0)
(0.423086 0.0001872 -0.90609)
(0 1 0)
(0.354191 0.000162296 -0.935173)
(0 1 0)
(0.283311 0.000136998 -0.959028)
(0 1 0)
(0.210852 0.000111151 -0.977518)
(0 1 0)
(0.137216 8.45142e-05 -0.990541)
(0 1 0)
(0.0628044 5.70652e-05 -0.998026)
(0 1 0)
(-0.0119457 2.87868e-05 -0.999929)
(0 1 0)
(-0.0866425 0 -0.996239)
(0 1 0)
(-0.160849 -0 -0.986979)
(0 1 0)
(-0.234164 2.86662e-05 -0.972197)
(0 1 0)
(-0.306151 5.70304e-05 -0.951983)
(0 1 0)
(-0.376443 8.44456e-05 -0.92644)
(0 1 0)
(-0.444622 0.00011118 -0.895718)
(0 1 0)
(-0.510309 0.000137405 -0.859991)
(0 1 0)
(-0.573156 0.000162 -0.819446)
(0 1 0)
(-0.632793 0.000186729 -0.774321)
(0 1 0)
(-0.688883 0.000211062 -0.724873)
(0 1 0)
(-0.74113 0.000233809 -0.671361)
(0 1 0)
(-0.789227 0.000256597 -0.614101)
(0 1 0)
(-0.83291 0.000278531 -0.553409)
(0 1 0)
(-0.871942 0.000299097 -0.489609)
(0 1 0)
(-0.90609 0.000320002 -0.423086)
(0 1 0)
(-0.935173 0.000339357 -0.354191)
(0 1 0)
(-0.959028 0.000358549 -0.283311)
(0 1 0)
(-0.977518 0.000376882 -0.210852)
(0 1 0)
(-0.990541 0.000394347 -0.137216)
(0 1 0)
(-0.998026 0.00041128 -0.0628044)
(0 1 0)
(-0.999929 0.000427346 0.0119457)
(0 1 0)
(-0.996239 0.00044272 0.0866425)
(0 1 0)
(-0.986979 0.00045729 0.160849)
(0 1 0)
(-0.972197 0.000471307 0.234164)
(0 1 0)
(-0.951983 0.000484829 0.306151)
(0 1 0)
(-0.92644 0.000497336 0.376443)
(0 1 0)
(-0.895718 0.00050983 0.444622)
(0 1 0)
(-0.859991 0.000520787 0.510309)
(0 1 0)
(-0.819446 0.000531121 0.573156)
(0 1 0)
(-0.774321 0.000541275 0.632793)
(0 1 0)
(-0.724873 0.000550388 0.688883)
(0 1 0)
(-0.671361 0.000558999 0.74113)
(0 1 0)
(-0.614101 0.000566675 0.789227)
(0 1 0)
(-0.553408 0.000573441 0.83291)
(0 1 0)
(-0.489609 0.000579761 0.871942)
(0 1 0)
(-0.423086 0.000585654 0.906089)
(0 1 0)
(-0.354191 0.000590181 0.935173)
(0 1 0)
(-0.283311 0.000594582 0.959028)
(0 1 -0)
(-0.210852 0.000598202 0.977518)
(0 1 -0)
(-0.137216 0.000601166 0.990541)
(0 1 -0)
(-0.0628044 0.00060337 0.998026)
(0 1 -0)
(0.0119457 0.000604503 0.999928)
(0 1 -0)
(0.160849 -0.000604551 0.986979)
(-8.1036e-16 -1 1.84726e-17)
(0.0866425 -0.000605114 0.996239)
(-8.10361e-16 -1 1.84728e-17)
(0.0119457 -0.000604503 0.999928)
(-8.10361e-16 -1 1.84737e-17)
(-0.0628044 -0.00060337 0.998026)
(-8.10361e-16 -1 1.84737e-17)
(-0.137216 -0.000601166 0.990541)
(-8.10361e-16 -1 1.84741e-17)
(-0.210852 -0.000598202 0.977518)
(-8.1036e-16 -1 1.84743e-17)
(-0.283311 -0.000594582 0.959028)
(-8.10361e-16 -1 1.8474e-17)
(-0.354191 -0.000590181 0.935173)
(-8.1036e-16 -1 1.84729e-17)
(-0.423086 -0.000585654 0.906089)
(-8.1036e-16 -1 1.84734e-17)
(-0.489609 -0.000579761 0.871942)
(-8.10361e-16 -1 1.84724e-17)
(-0.553408 -0.000573441 0.83291)
(-8.10361e-16 -1 1.84746e-17)
(-0.614101 -0.000566675 0.789227)
(-8.10361e-16 -1 1.84747e-17)
(-0.671361 -0.000558999 0.74113)
(-8.10358e-16 -1 1.84735e-17)
(-0.724873 -0.000550388 0.688883)
(-8.1036e-16 -1 1.84665e-17)
(-0.774321 -0.000541276 0.632793)
(-8.10356e-16 -1 1.8476e-17)
(-0.819446 -0.000531121 0.573156)
(-8.10355e-16 -1 1.84749e-17)
(-0.859991 -0.000520787 0.510309)
(-8.10355e-16 -1 1.84633e-17)
(-0.895718 -0.00050983 0.444622)
(-8.1037e-16 -1 1.84735e-17)
(-0.92644 -0.000497337 0.376443)
(-8.10366e-16 -1 1.84784e-17)
(-0.951983 -0.000484829 0.306151)
(-8.10361e-16 -1 1.8471e-17)
(-0.972197 -0.000471307 0.234164)
(-8.10363e-16 -1 1.84844e-17)
(-0.986979 -0.00045729 0.160849)
(-8.10338e-16 -1 1.84707e-17)
(-0.996239 -0.00044272 0.0866425)
(-8.10349e-16 -1 1.84674e-17)
(-0.999929 -0.000427346 0.0119457)
(-8.10349e-16 -1 1.84714e-17)
(-0.998026 -0.00041128 -0.0628044)
(-8.10364e-16 -1 1.8472e-17)
(-0.990541 -0.000394347 -0.137216)
(-8.1035e-16 -1 1.84781e-17)
(-0.977518 -0.000376882 -0.210852)
(-8.10366e-16 -1 1.84689e-17)
(-0.959028 -0.000358549 -0.283311)
(-8.10359e-16 -1 1.84778e-17)
(-0.935173 -0.000339357 -0.354191)
(-8.10355e-16 -1 1.84727e-17)
(-0.90609 -0.000320002 -0.423086)
(-8.10367e-16 -1 1.84651e-17)
(-0.871942 -0.000299097 -0.489609)
(-8.10353e-16 -1 1.84911e-17)
(-0.83291 -0.000278531 -0.553409)
(-8.10361e-16 -1 1.84656e-17)
(-0.789227 -0.000256597 -0.614101)
(-8.1036e-16 -1 1.84733e-17)
(-0.74113 -0.000233809 -0.671361)
(-8.10368e-16 -1 1.84691e-17)
(-0.688883 -0.000211062 -0.724873)
(-8.10361e-16 -1 1.84751e-17)
(-0.632793 -0.000186729 -0.774321)
(-8.1036e-16 -1 1.8473e-17)
(-0.573156 -0.000162 -0.819446)
(-8.1036e-16 -1 1.84743e-17)
(-0.510309 -0.000137405 -0.859991)
(-8.1036e-16 -1 1.84744e-17)
(-0.444622 -0.00011118 -0.895718)
(-8.10361e-16 -1 1.8474e-17)
(-0.376443 -8.44456e-05 -0.92644)
(-8.10361e-16 -1 1.84725e-17)
(-0.306151 -5.70304e-05 -0.951983)
(-8.10361e-16 -1 1.84746e-17)
(-0.234164 -2.86662e-05 -0.972197)
(-8.10361e-16 -1 1.84732e-17)
(-0.160849 0 -0.986979)
(-8.1036e-16 -1 1.84726e-17)
(-0.0866425 0 -0.996239)
(-8.10361e-16 -1 1.84728e-17)
(-0.0119457 -2.87868e-05 -0.999929)
(-8.10361e-16 -1 1.84737e-17)
(0.0628044 -5.70652e-05 -0.998026)
(-8.10361e-16 -1 1.84737e-17)
(0.137216 -8.45142e-05 -0.990541)
(-8.10361e-16 -1 1.84741e-17)
(0.210852 -0.000111151 -0.977518)
(-8.1036e-16 -1 1.84743e-17)
(0.283311 -0.000136998 -0.959028)
(-8.10361e-16 -1 1.8474e-17)
(0.354191 -0.000162296 -0.935173)
(-8.1036e-16 -1 1.84729e-17)
(0.423086 -0.0001872 -0.90609)
(-8.1036e-16 -1 1.84734e-17)
(0.489609 -0.000210901 -0.871942)
(-8.10361e-16 -1 1.84724e-17)
(0.553409 -0.000233688 -0.83291)
(-8.10361e-16 -1 1.84746e-17)
(0.614101 -0.000256518 -0.789227)
(-8.10361e-16 -1 1.84747e-17)
(0.671361 -0.00027839 -0.74113)
(-8.10358e-16 -1 1.84735e-17)
(0.724873 -0.000299344 -0.688883)
(-8.1036e-16 -1 1.84665e-17)
(0.774321 -0.000319719 -0.632793)
(-8.10356e-16 -1 1.8476e-17)
(0.819446 -0.000339442 -0.573156)
(-8.10355e-16 -1 1.84749e-17)
(0.859991 -0.000358483 -0.510309)
(-8.10355e-16 -1 1.84633e-17)
(0.895718 -0.000376622 -0.444622)
(-8.1037e-16 -1 1.84735e-17)
(0.92644 -0.000394221 -0.376443)
(-8.10366e-16 -1 1.84784e-17)
(0.951983 -0.000410841 -0.306151)
(-8.10361e-16 -1 1.8471e-17)
(0.972197 -0.000427384 -0.234164)
(-8.10363e-16 -1 1.84844e-17)
(0.986979 -0.00044251 -0.160849)
(-8.10338e-16 -1 1.84707e-17)
(0.996239 -0.00045714 -0.0866425)
(-8.10349e-16 -1 1.84674e-17)
(0.999929 -0.000471297 -0.0119457)
(-8.10349e-16 -1 1.84714e-17)
(0.998026 -0.000484943 0.0628044)
(-8.10364e-16 -1 1.8472e-17)
(0.990541 -0.000497427 0.137216)
(-8.1035e-16 -1 1.84781e-17)
(0.977518 -0.000509406 0.210852)
(-8.10366e-16 -1 1.84689e-17)
(0.959028 -0.00052092 0.283311)
(-8.10359e-16 -1 1.84778e-17)
(0.935173 -0.000531227 0.354191)
(-8.10355e-16 -1 1.84727e-17)
(0.906089 -0.000541009 0.423086)
(-8.10367e-16 -1 1.84651e-17)
(0.871942 -0.000550192 0.489609)
(-8.10353e-16 -1 1.84911e-17)
(0.83291 -0.000558377 0.553408)
(-8.10361e-16 -1 1.84656e-17)